########## Name:	0	2258.09  0.315928
@<TRIPOS>MOLECULE
af2_protein.mol20	
 42 44 1 0 0
SMALL
GASTEIGER


@<TRIPOS>ATOM
      1 P          -1.5725    8.7355   -4.8378 P.3     1  UNL1        0.0544
      2 O          -1.2117    8.7808   -6.2691 O.co2   1  UNL1       -0.6615
      3 O          -0.6060    9.4351   -3.9249 O.co2   1  UNL1       -0.6615
      4 O          -1.9584    7.3868   -4.3615 O.co2   1  UNL1       -0.6615
      5 P          -3.8207   10.4503   -3.4724 P.3     1  UNL1        0.2491
      6 O          -2.5959   11.0798   -2.8956 O.co2   1  UNL1       -0.6337
      7 O          -4.7594    9.7518   -2.5530 O.co2   1  UNL1       -0.6337
      8 O          -2.9423    9.6394   -4.7084 O.3     1  UNL1       -0.0930
      9 O          -4.6300   11.6277   -4.2528 O.3     1  UNL1       -0.2057
     10 C          -4.9070   12.8610   -3.6190 C.3     1  UNL1        0.1232
     11 C          -6.3020   12.7343   -3.0809 C.3     1  UNL1        0.1214
     12 O          -6.1568   12.4989   -1.6764 O.3     1  UNL1       -0.3453
     13 C          -7.1358   14.0360   -3.2315 C.3     1  UNL1        0.1593
     14 O          -8.5361   13.6917   -3.4385 O.3     1  UNL1       -0.2421
     15 P          -9.0260   12.8161   -4.8206 P.3     1  UNL1       -0.0004
     16 O         -10.1765   13.6375   -5.2723 O.co2   1  UNL1       -0.6646
     17 O          -7.8227   12.8829   -5.6885 O.co2   1  UNL1       -0.6646
     18 O          -9.3276   11.4294   -4.3516 O.co2   1  UNL1       -0.6646
     19 C          -6.9187   14.6796   -1.8674 C.3     1  UNL1        0.1329
     20 O          -7.9564   15.6431   -1.5803 O.3     1  UNL1       -0.3845
     21 C          -7.0664   13.3855   -1.0429 C.3     1  UNL1        0.1668
     22 N          -6.6085   13.4353    0.3639 N.ar    1  UNL1       -0.2855
     23 C          -7.4007   13.0454    1.4147 C.ar    1  UNL1        0.1004
     24 N          -6.8362   13.1678    2.5795 N.ar    1  UNL1       -0.2306
     25 C          -5.5329   13.6912    2.3024 C.ar    1  UNL1        0.1473
     26 C          -4.4100   14.0351    3.1699 C.ar    1  UNL1        0.1472
     27 N          -4.4922   13.9866    4.5137 N.pl3   1  UNL1       -0.3413
     28 N          -3.2763   14.4859    2.5711 N.ar    1  UNL1       -0.2188
     29 C          -3.2760   14.6034    1.2351 C.ar    1  UNL1        0.1205
     30 N          -4.2365   14.3355    0.3175 N.ar    1  UNL1       -0.2159
     31 C          -5.3782   13.8615    0.9309 C.ar    1  UNL1        0.1674
     32 H          -4.2011   13.0384   -2.8076 H       1  UNL1        0.0631
     33 H          -4.8572   13.6738   -4.3435 H       1  UNL1        0.0631
     34 H          -6.8164   11.8979   -3.5541 H       1  UNL1        0.0650
     35 H          -6.7549   14.6648   -4.0362 H       1  UNL1        0.0694
     36 H          -5.9250   15.0740   -1.6553 H       1  UNL1        0.0667
     37 H          -7.9910   12.8147   -1.1282 H       1  UNL1        0.0866
     38 H          -8.4050   12.6696    1.2853 H       1  UNL1        0.1030
     39 H          -2.3514   14.9755    0.8192 H       1  UNL1        0.1048
     40 H          -4.4914   13.0949    4.9880 H       1  UNL1        0.1438
     41 H          -4.5550   14.8420    5.0470 H       1  UNL1        0.1438
     42 H          -8.1692   15.6154   -0.6445 H       1  UNL1        0.2101
@<TRIPOS>BOND
     1     1     2    1
     2     1     3    1
     3     1     4    1
     4     1     8    1
     5     5     6    1
     6     5     7    1
     7     5     8    1
     8     5     9    1
     9     9    10    1
    10    10    11    1
    11    11    12    1
    12    11    13    1
    13    12    21    1
    14    13    14    1
    15    13    19    1
    16    14    15    1
    17    15    16    1
    18    15    17    1
    19    15    18    1
    20    19    20    1
    21    19    21    1
    22    21    22    1
    23    22    23   ar
    24    22    31   ar
    25    23    24   ar
    26    24    25   ar
    27    25    26   ar
    28    25    31   ar
    29    26    27    1
    30    26    28   ar
    31    28    29   ar
    32    29    30   ar
    33    30    31   ar
    34    32    10    1
    35    33    10    1
    36    11    34    1
    37    13    35    1
    38    19    36    1
    39    21    37    1
    40    38    23    1
    41    39    29    1
    42    40    27    1
    43    41    27    1
    44    42    20    1
@<TRIPOS>SUBSTRUCTURE
     1 UNL1        1 TEMP              0 ****  ****    0 ROOT

########## Name:	1	2239.38  0.33226
@<TRIPOS>MOLECULE
af2_protein.mol21	
 42 44 1 0 0
SMALL
GASTEIGER


@<TRIPOS>ATOM
      1 P          -3.4912    8.0757   -2.9289 P.3     1  UNL1        0.0544
      2 O          -4.8236    7.4656   -2.7458 O.co2   1  UNL1       -0.6615
      3 O          -2.7048    7.5289   -4.0863 O.co2   1  UNL1       -0.6615
      4 O          -2.7029    8.1753   -1.6785 O.co2   1  UNL1       -0.6615
      5 P          -2.9430   10.9215   -4.1370 P.3     1  UNL1        0.2491
      6 O          -1.8873   11.8535   -3.6408 O.co2   1  UNL1       -0.6337
      7 O          -3.5620    9.9727   -3.1722 O.co2   1  UNL1       -0.6337
      8 O          -3.7861    9.6340   -3.3700 O.3     1  UNL1       -0.0930
      9 O          -4.1145   11.8447   -4.7894 O.3     1  UNL1       -0.2057
     10 C          -4.6557   12.9405   -4.0784 C.3     1  UNL1        0.1232
     11 C          -5.8951   12.4180   -3.4131 C.3     1  UNL1        0.1214
     12 O          -5.5675   12.2921   -2.0253 O.3     1  UNL1       -0.3453
     13 C          -7.0960   13.3989   -3.5011 C.3     1  UNL1        0.1593
     14 O          -8.3365   12.6389   -3.5749 O.3     1  UNL1       -0.2421
     15 P          -8.6500   11.6033   -4.8962 P.3     1  UNL1       -0.0004
     16 O         -10.0300   12.0194   -5.2496 O.co2   1  UNL1       -0.6646
     17 O          -7.6020   11.9979   -5.8717 O.co2   1  UNL1       -0.6646
     18 O          -8.4735   10.2096   -4.3861 O.co2   1  UNL1       -0.6646
     19 C          -6.9719   14.1303   -2.1700 C.3     1  UNL1        0.1329
     20 O          -8.2262   14.7444   -1.7996 O.3     1  UNL1       -0.3845
     21 C          -6.6477   12.8852   -1.3210 C.3     1  UNL1        0.1668
     22 N          -6.1104   13.1256    0.0372 N.ar    1  UNL1       -0.2855
     23 C          -6.7646   12.7225    1.1745 C.ar    1  UNL1        0.1004
     24 N          -6.1489   13.0281    2.2780 N.ar    1  UNL1       -0.2306
     25 C          -4.9591   13.7050    1.8591 C.ar    1  UNL1        0.1473
     26 C          -3.8450   14.2819    2.6059 C.ar    1  UNL1        0.1472
     27 N          -3.8301   14.3428    3.9516 N.pl3   1  UNL1       -0.3413
     28 N          -2.8330   14.8342    1.8862 N.ar    1  UNL1       -0.2188
     29 C          -2.9384   14.8303    0.5492 C.ar    1  UNL1        0.1205
     30 N          -3.9069   14.3470   -0.2662 N.ar    1  UNL1       -0.2159
     31 C          -4.9224   13.7720    0.4705 C.ar    1  UNL1        0.1674
     32 H          -3.9721   13.3547   -3.3372 H       1  UNL1        0.0631
     33 H          -4.9174   13.7016   -4.8134 H       1  UNL1        0.0631
     34 H          -6.1675   11.4474   -3.8278 H       1  UNL1        0.0650
     35 H          -6.9942   14.0821   -4.3443 H       1  UNL1        0.0694
     36 H          -6.1511   14.8475   -2.1731 H       1  UNL1        0.0667
     37 H          -7.4807   12.1830   -1.2881 H       1  UNL1        0.0866
     38 H          -7.7081   12.1974    1.1544 H       1  UNL1        0.1030
     39 H          -2.1090   15.2916    0.0339 H       1  UNL1        0.1048
     40 H          -3.6653   13.5065    4.4934 H       1  UNL1        0.1438
     41 H          -3.9840   15.2249    4.4189 H       1  UNL1        0.1438
     42 H          -8.2907   14.7892   -0.8428 H       1  UNL1        0.2101
@<TRIPOS>BOND
     1     1     2    1
     2     1     3    1
     3     1     4    1
     4     1     8    1
     5     5     6    1
     6     5     7    1
     7     5     8    1
     8     5     9    1
     9     9    10    1
    10    10    11    1
    11    11    12    1
    12    11    13    1
    13    12    21    1
    14    13    14    1
    15    13    19    1
    16    14    15    1
    17    15    16    1
    18    15    17    1
    19    15    18    1
    20    19    20    1
    21    19    21    1
    22    21    22    1
    23    22    23   ar
    24    22    31   ar
    25    23    24   ar
    26    24    25   ar
    27    25    26   ar
    28    25    31   ar
    29    26    27    1
    30    26    28   ar
    31    28    29   ar
    32    29    30   ar
    33    30    31   ar
    34    32    10    1
    35    33    10    1
    36    11    34    1
    37    13    35    1
    38    19    36    1
    39    21    37    1
    40    38    23    1
    41    39    29    1
    42    40    27    1
    43    41    27    1
    44    42    20    1
@<TRIPOS>SUBSTRUCTURE
     1 UNL1        1 TEMP              0 ****  ****    0 ROOT

########## Name:	2	2233.08  0.323898
@<TRIPOS>MOLECULE
af2_protein.mol22	
 42 44 1 0 0
SMALL
GASTEIGER


@<TRIPOS>ATOM
      1 P          -3.4862    7.7751   -3.6765 P.3     1  UNL1        0.0544
      2 O          -4.4942    7.0736   -4.4967 O.co2   1  UNL1       -0.6615
      3 O          -2.0904    7.7375   -4.2305 O.co2   1  UNL1       -0.6615
      4 O          -3.5543    7.4439   -2.2341 O.co2   1  UNL1       -0.6615
      5 P          -3.1348   10.8900   -3.4957 P.3     1  UNL1        0.2491
      6 O          -2.0950   11.6904   -2.7836 O.co2   1  UNL1       -0.6337
      7 O          -4.1034   10.1036   -2.6848 O.co2   1  UNL1       -0.6337
      8 O          -3.8895    9.3687   -3.7656 O.3     1  UNL1       -0.0930
      9 O          -3.9617   11.9283   -4.4385 O.3     1  UNL1       -0.2057
     10 C          -4.4791   13.1337   -3.9107 C.3     1  UNL1        0.1232
     11 C          -5.8278   12.7846   -3.3533 C.3     1  UNL1        0.1214
     12 O          -5.6343   12.6149   -1.9452 O.3     1  UNL1       -0.3453
     13 C          -6.8734   13.9199   -3.5267 C.3     1  UNL1        0.1593
     14 O          -8.1954   13.3358   -3.7087 O.3     1  UNL1       -0.2421
     15 P          -8.5380   12.3529   -5.0626 P.3     1  UNL1       -0.0004
     16 O          -9.8323   12.9316   -5.5014 O.co2   1  UNL1       -0.6646
     17 O          -7.3869   12.6269   -5.9602 O.co2   1  UNL1       -0.6646
     18 O          -8.5617   10.9450   -4.5618 O.co2   1  UNL1       -0.6646
     19 C          -6.7599   14.6272   -2.1817 C.3     1  UNL1        0.1329
     20 O          -7.9452   15.4064   -1.9066 O.3     1  UNL1       -0.3845
     21 C          -6.6777   13.3494   -1.3235 C.3     1  UNL1        0.1668
     22 N          -6.2250   13.5141    0.0762 N.ar    1  UNL1       -0.2855
     23 C          -7.0307   13.2378    1.1525 C.ar    1  UNL1        0.1004
     24 N          -6.4686   13.4508    2.3053 N.ar    1  UNL1       -0.2306
     25 C          -5.1523   13.9175    1.9911 C.ar    1  UNL1        0.1473
     26 C          -4.0254   14.3117    2.8317 C.ar    1  UNL1        0.1472
     27 N          -4.1147   14.3853    4.1739 N.pl3   1  UNL1       -0.3413
     28 N          -2.8789   14.6812    2.2024 N.ar    1  UNL1       -0.2188
     29 C          -2.8700   14.6788    0.8613 C.ar    1  UNL1        0.1205
     30 N          -3.8324   14.3521   -0.0350 N.ar    1  UNL1       -0.2159
     31 C          -4.9876   13.9610    0.6109 C.ar    1  UNL1        0.1674
     32 H          -3.8081   13.4508   -3.1123 H       1  UNL1        0.0631
     33 H          -4.5744   13.9235   -4.6557 H       1  UNL1        0.0631
     34 H          -6.1948   11.8602   -3.7995 H       1  UNL1        0.0650
     35 H          -6.6116   14.5831   -4.3512 H       1  UNL1        0.0694
     36 H          -5.8519   15.2260   -2.1106 H       1  UNL1        0.0667
     37 H          -7.6151   12.7945   -1.3635 H       1  UNL1        0.0866
     38 H          -8.0429   12.8751    1.0506 H       1  UNL1        0.1030
     39 H          -1.9351   14.9911    0.4198 H       1  UNL1        0.1048
     40 H          -4.1367   13.5397    4.7259 H       1  UNL1        0.1438
     41 H          -4.1598   15.2862    4.6284 H       1  UNL1        0.1438
     42 H          -8.0807   15.4593   -0.9577 H       1  UNL1        0.2101
@<TRIPOS>BOND
     1     1     2    1
     2     1     3    1
     3     1     4    1
     4     1     8    1
     5     5     6    1
     6     5     7    1
     7     5     8    1
     8     5     9    1
     9     9    10    1
    10    10    11    1
    11    11    12    1
    12    11    13    1
    13    12    21    1
    14    13    14    1
    15    13    19    1
    16    14    15    1
    17    15    16    1
    18    15    17    1
    19    15    18    1
    20    19    20    1
    21    19    21    1
    22    21    22    1
    23    22    23   ar
    24    22    31   ar
    25    23    24   ar
    26    24    25   ar
    27    25    26   ar
    28    25    31   ar
    29    26    27    1
    30    26    28   ar
    31    28    29   ar
    32    29    30   ar
    33    30    31   ar
    34    32    10    1
    35    33    10    1
    36    11    34    1
    37    13    35    1
    38    19    36    1
    39    21    37    1
    40    38    23    1
    41    39    29    1
    42    40    27    1
    43    41    27    1
    44    42    20    1
@<TRIPOS>SUBSTRUCTURE
     1 UNL1        1 TEMP              0 ****  ****    0 ROOT

########## Name:	3	2280.65  0.336365
@<TRIPOS>MOLECULE
af2_protein.mol23	
 42 44 1 0 0
SMALL
GASTEIGER


@<TRIPOS>ATOM
      1 P          -2.9443    7.8335   -3.5788 P.3     1  UNL1        0.0544
      2 O          -1.7965    7.6913   -4.4971 O.co2   1  UNL1       -0.6615
      3 O          -2.5732    8.0153   -2.1344 O.co2   1  UNL1       -0.6615
      4 O          -4.0064    6.8222   -3.7890 O.co2   1  UNL1       -0.6615
      5 P          -4.7613   10.3775   -3.2866 P.3     1  UNL1        0.2491
      6 O          -4.1586   10.3833   -1.9206 O.co2   1  UNL1       -0.6337
      7 O          -6.2261   10.1491   -3.4146 O.co2   1  UNL1       -0.6337
      8 O          -3.6415    9.2704   -3.9775 O.3     1  UNL1       -0.0930
      9 O          -4.4593   11.7877   -4.0419 O.3     1  UNL1       -0.2057
     10 C          -4.6998   13.0228   -3.3968 C.3     1  UNL1        0.1232
     11 C          -6.0032   12.8532   -2.6728 C.3     1  UNL1        0.1214
     12 O          -5.6607   12.6544   -1.2972 O.3     1  UNL1       -0.3453
     13 C          -6.9034   14.1176   -2.7305 C.3     1  UNL1        0.1593
     14 O          -8.3031   13.7142   -2.7405 O.3     1  UNL1       -0.2421
     15 P          -8.9375   12.7902   -4.0290 P.3     1  UNL1       -0.0004
     16 O         -10.1992   13.5238   -4.2978 O.co2   1  UNL1       -0.6646
     17 O          -7.8906   12.9304   -5.0731 O.co2   1  UNL1       -0.6646
     18 O          -9.0641   11.3915   -3.5176 O.co2   1  UNL1       -0.6646
     19 C          -6.5318   14.7988   -1.4190 C.3     1  UNL1        0.1329
     20 O          -7.5608   15.7270   -1.0099 O.3     1  UNL1       -0.3845
     21 C          -6.5130   13.5183   -0.5611 C.3     1  UNL1        0.1668
     22 N          -5.8726   13.6167    0.7698 N.ar    1  UNL1       -0.2855
     23 C          -6.5537   13.3840    1.9384 C.ar    1  UNL1        0.1004
     24 N          -5.8328   13.5268    3.0109 N.ar    1  UNL1       -0.2306
     25 C          -4.5335   13.8921    2.5337 C.ar    1  UNL1        0.1473
     26 C          -3.2795   14.1764    3.2254 C.ar    1  UNL1        0.1472
     27 N          -3.1895   14.2289    4.5686 N.pl3   1  UNL1       -0.3413
     28 N          -2.1964   14.4650    2.4567 N.ar    1  UNL1       -0.2188
     29 C          -2.3597   14.4900    1.1258 C.ar    1  UNL1        0.1205
     30 N          -3.4529   14.2608    0.3584 N.ar    1  UNL1       -0.2159
     31 C          -4.5441   13.9509    1.1444 C.ar    1  UNL1        0.1674
     32 H          -3.8992   13.2454   -2.6913 H       1  UNL1        0.0631
     33 H          -4.7819   13.8209   -4.1345 H       1  UNL1        0.0631
     34 H          -6.5412   11.9872   -3.0584 H       1  UNL1        0.0650
     35 H          -6.6608   14.7432   -3.5895 H       1  UNL1        0.0694
     36 H          -5.5380   15.2440   -1.3719 H       1  UNL1        0.0667
     37 H          -7.4904   13.0420   -0.4851 H       1  UNL1        0.0866
     38 H          -7.5971   13.1064    1.9648 H       1  UNL1        0.1030
     39 H          -1.4666   14.7348    0.5703 H       1  UNL1        0.1048
     40 H          -3.2105   13.3765    5.1100 H       1  UNL1        0.1438
     41 H          -3.1013   15.1208    5.0342 H       1  UNL1        0.1438
     42 H          -7.6301   15.7268   -0.0524 H       1  UNL1        0.2101
@<TRIPOS>BOND
     1     1     2    1
     2     1     3    1
     3     1     4    1
     4     1     8    1
     5     5     6    1
     6     5     7    1
     7     5     8    1
     8     5     9    1
     9     9    10    1
    10    10    11    1
    11    11    12    1
    12    11    13    1
    13    12    21    1
    14    13    14    1
    15    13    19    1
    16    14    15    1
    17    15    16    1
    18    15    17    1
    19    15    18    1
    20    19    20    1
    21    19    21    1
    22    21    22    1
    23    22    23   ar
    24    22    31   ar
    25    23    24   ar
    26    24    25   ar
    27    25    26   ar
    28    25    31   ar
    29    26    27    1
    30    26    28   ar
    31    28    29   ar
    32    29    30   ar
    33    30    31   ar
    34    32    10    1
    35    33    10    1
    36    11    34    1
    37    13    35    1
    38    19    36    1
    39    21    37    1
    40    38    23    1
    41    39    29    1
    42    40    27    1
    43    41    27    1
    44    42    20    1
@<TRIPOS>SUBSTRUCTURE
     1 UNL1        1 TEMP              0 ****  ****    0 ROOT

########## Name:	4	2235.07  0.323768
@<TRIPOS>MOLECULE
af2_protein.mol24	
 42 44 1 0 0
SMALL
GASTEIGER


@<TRIPOS>ATOM
      1 P          -2.6927    8.1088   -3.6201 P.3     1  UNL1        0.0544
      2 O          -1.4283    8.1853   -4.3793 O.co2   1  UNL1       -0.6615
      3 O          -2.5519    8.3401   -2.1424 O.co2   1  UNL1       -0.6615
      4 O          -3.5185    6.9247   -3.9529 O.co2   1  UNL1       -0.6615
      5 P          -4.8700   10.3695   -3.5327 P.3     1  UNL1        0.2491
      6 O          -3.9958   10.4175   -2.3232 O.co2   1  UNL1       -0.6337
      7 O          -6.3221   10.1018   -3.3482 O.co2   1  UNL1       -0.6337
      8 O          -3.5793    9.4004   -4.1258 O.3     1  UNL1       -0.0930
      9 O          -4.6683   11.8097   -4.2646 O.3     1  UNL1       -0.2057
     10 C          -4.7904   13.0166   -3.5381 C.3     1  UNL1        0.1232
     11 C          -6.1583   12.9806   -2.9222 C.3     1  UNL1        0.1214
     12 O          -5.9486   12.7690   -1.5221 O.3     1  UNL1       -0.3453
     13 C          -6.9265   14.3234   -3.0606 C.3     1  UNL1        0.1593
     14 O          -8.3528   14.0538   -3.1827 O.3     1  UNL1       -0.2421
     15 P          -8.9659   13.1764   -4.5134 P.3     1  UNL1       -0.0004
     16 O         -10.0929   14.0508   -4.9230 O.co2   1  UNL1       -0.6646
     17 O          -7.8108   13.1559   -5.4467 O.co2   1  UNL1       -0.6646
     18 O          -9.3168   11.8197   -3.9937 O.co2   1  UNL1       -0.6646
     19 C          -6.5990   14.9842   -1.7271 C.3     1  UNL1        0.1329
     20 O          -7.5647   16.0108   -1.4089 O.3     1  UNL1       -0.3845
     21 C          -6.7716   13.7194   -0.8631 C.3     1  UNL1        0.1668
     22 N          -6.2344   13.7749    0.5151 N.ar    1  UNL1       -0.2855
     23 C          -7.0227   13.5994    1.6248 C.ar    1  UNL1        0.1004
     24 N          -6.3815   13.6920    2.7520 N.ar    1  UNL1       -0.2306
     25 C          -5.0242   13.9560    2.3814 C.ar    1  UNL1        0.1473
     26 C          -3.8118   14.1477    3.1721 C.ar    1  UNL1        0.1472
     27 N          -3.8262   14.1991    4.5182 N.pl3   1  UNL1       -0.3413
     28 N          -2.6518   14.3504    2.4934 N.ar    1  UNL1       -0.2188
     29 C          -2.7055   14.3817    1.1537 C.ar    1  UNL1        0.1205
     30 N          -3.7477   14.2325    0.3006 N.ar    1  UNL1       -0.2159
     31 C          -4.9188   14.0094    0.9958 C.ar    1  UNL1        0.1674
     32 H          -4.0319   13.1722   -2.7708 H       1  UNL1        0.0631
     33 H          -4.7363   13.8089   -4.2846 H       1  UNL1        0.0631
     34 H          -6.7433   12.1641   -3.3454 H       1  UNL1        0.0650
     35 H          -6.5568   14.9116   -3.9005 H       1  UNL1        0.0694
     36 H          -5.5805   15.3721   -1.7421 H       1  UNL1        0.0667
     37 H          -7.7852   13.3186   -0.8667 H       1  UNL1        0.0866
     38 H          -8.0830   13.4016    1.5668 H       1  UNL1        0.1030
     39 H          -1.7546   14.5560    0.6722 H       1  UNL1        0.1048
     40 H          -3.9551   13.3532    5.0547 H       1  UNL1        0.1438
     41 H          -3.7084   15.0838    4.9910 H       1  UNL1        0.1438
     42 H          -7.6153   16.1188   -0.4563 H       1  UNL1        0.2101
@<TRIPOS>BOND
     1     1     2    1
     2     1     3    1
     3     1     4    1
     4     1     8    1
     5     5     6    1
     6     5     7    1
     7     5     8    1
     8     5     9    1
     9     9    10    1
    10    10    11    1
    11    11    12    1
    12    11    13    1
    13    12    21    1
    14    13    14    1
    15    13    19    1
    16    14    15    1
    17    15    16    1
    18    15    17    1
    19    15    18    1
    20    19    20    1
    21    19    21    1
    22    21    22    1
    23    22    23   ar
    24    22    31   ar
    25    23    24   ar
    26    24    25   ar
    27    25    26   ar
    28    25    31   ar
    29    26    27    1
    30    26    28   ar
    31    28    29   ar
    32    29    30   ar
    33    30    31   ar
    34    32    10    1
    35    33    10    1
    36    11    34    1
    37    13    35    1
    38    19    36    1
    39    21    37    1
    40    38    23    1
    41    39    29    1
    42    40    27    1
    43    41    27    1
    44    42    20    1
@<TRIPOS>SUBSTRUCTURE
     1 UNL1        1 TEMP              0 ****  ****    0 ROOT

########## Name:	5	2241.9  0.333014
@<TRIPOS>MOLECULE
af2_protein.mol25	
 42 44 1 0 0
SMALL
GASTEIGER


@<TRIPOS>ATOM
      1 P          -2.2968    8.2145   -3.5521 P.3     1  UNL1        0.0544
      2 O          -0.8703    8.5159   -3.7874 O.co2   1  UNL1       -0.6615
      3 O          -2.6769    8.0701   -2.1059 O.co2   1  UNL1       -0.6615
      4 O          -2.8274    7.1293   -4.4096 O.co2   1  UNL1       -0.6615
      5 P          -4.5089   10.4428   -3.5517 P.3     1  UNL1        0.2491
      6 O          -3.9880   10.3726   -2.1543 O.co2   1  UNL1       -0.6337
      7 O          -5.9521   10.1654   -3.7856 O.co2   1  UNL1       -0.6337
      8 O          -3.1082    9.5659   -4.0269 O.3     1  UNL1       -0.0930
      9 O          -4.3512   11.8896   -4.2813 O.3     1  UNL1       -0.2057
     10 C          -4.7079   13.0829   -3.6118 C.3     1  UNL1        0.1232
     11 C          -6.0624   12.8247   -3.0201 C.3     1  UNL1        0.1214
     12 O          -5.8379   12.5795   -1.6277 O.3     1  UNL1       -0.3453
     13 C          -7.0125   14.0501   -3.1101 C.3     1  UNL1        0.1593
     14 O          -8.3848   13.5871   -3.2669 O.3     1  UNL1       -0.2421
     15 P          -8.8543   12.6950   -4.6454 P.3     1  UNL1       -0.0004
     16 O         -10.1381   13.3606   -4.9790 O.co2   1  UNL1       -0.6646
     17 O          -7.7419   12.9569   -5.5940 O.co2   1  UNL1       -0.6646
     18 O          -8.9255   11.2658   -4.2141 O.co2   1  UNL1       -0.6646
     19 C          -6.7949   14.6874   -1.7431 C.3     1  UNL1        0.1329
     20 O          -7.8998   15.5507   -1.3944 O.3     1  UNL1       -0.3845
     21 C          -6.7939   13.3718   -0.9398 C.3     1  UNL1        0.1668
     22 N          -6.2830   13.4382    0.4479 N.ar    1  UNL1       -0.2855
     23 C          -7.0154   13.0127    1.5278 C.ar    1  UNL1        0.1004
     24 N          -6.4108   13.1567    2.6697 N.ar    1  UNL1       -0.2306
     25 C          -5.1431   13.7358    2.3432 C.ar    1  UNL1        0.1473
     26 C          -4.0022   14.1256    3.1668 C.ar    1  UNL1        0.1472
     27 N          -4.0288   14.0709    4.5126 N.pl3   1  UNL1       -0.3413
     28 N          -2.9134   14.6256    2.5252 N.ar    1  UNL1       -0.2188
     29 C          -2.9712   14.7457    1.1907 C.ar    1  UNL1        0.1205
     30 N          -3.9552   14.4389    0.3109 N.ar    1  UNL1       -0.2159
     31 C          -5.0504   13.9153    0.9673 C.ar    1  UNL1        0.1674
     32 H          -3.9865   13.3083   -2.8264 H       1  UNL1        0.0631
     33 H          -4.7600   13.9090   -4.3210 H       1  UNL1        0.0631
     34 H          -6.5213   11.9542   -3.4890 H       1  UNL1        0.0650
     35 H          -6.7224   14.7234   -3.9166 H       1  UNL1        0.0694
     36 H          -6.0669   15.1920   -2.3782 H       1  UNL1        0.0667
     37 H          -7.6960   12.7622   -0.9905 H       1  UNL1        0.0866
     38 H          -8.0072   12.5947    1.4369 H       1  UNL1        0.1030
     39 H          -2.0806   15.1577    0.7399 H       1  UNL1        0.1048
     40 H          -3.9711   13.1791    4.9832 H       1  UNL1        0.1438
     41 H          -4.1067   14.9218    5.0511 H       1  UNL1        0.1438
     42 H          -7.6554   16.0962   -0.6432 H       1  UNL1        0.2101
@<TRIPOS>BOND
     1     1     2    1
     2     1     3    1
     3     1     4    1
     4     1     8    1
     5     5     6    1
     6     5     7    1
     7     5     8    1
     8     5     9    1
     9     9    10    1
    10    10    11    1
    11    11    12    1
    12    11    13    1
    13    12    21    1
    14    13    14    1
    15    13    19    1
    16    14    15    1
    17    15    16    1
    18    15    17    1
    19    15    18    1
    20    19    20    1
    21    19    21    1
    22    21    22    1
    23    22    23   ar
    24    22    31   ar
    25    23    24   ar
    26    24    25   ar
    27    25    26   ar
    28    25    31   ar
    29    26    27    1
    30    26    28   ar
    31    28    29   ar
    32    29    30   ar
    33    30    31   ar
    34    32    10    1
    35    33    10    1
    36    11    34    1
    37    13    35    1
    38    19    36    1
    39    21    37    1
    40    38    23    1
    41    39    29    1
    42    40    27    1
    43    41    27    1
    44    42    20    1
@<TRIPOS>SUBSTRUCTURE
     1 UNL1        1 TEMP              0 ****  ****    0 ROOT

########## Name:	6	2257.32  0.321444
@<TRIPOS>MOLECULE
af2_protein.mol26	
 42 44 1 0 0
SMALL
GASTEIGER


@<TRIPOS>ATOM
      1 P          -1.5280    8.7810   -3.6105 P.3     1  UNL1        0.0544
      2 O          -0.1242    9.0550   -3.9783 O.co2   1  UNL1       -0.6615
      3 O          -1.7892    8.7232   -2.1322 O.co2   1  UNL1       -0.6615
      4 O          -2.1321    7.6534   -4.3578 O.co2   1  UNL1       -0.6615
      5 P          -3.8036   10.9442   -3.6431 P.3     1  UNL1        0.2491
      6 O          -3.6516   10.9473   -2.1578 O.co2   1  UNL1       -0.6337
      7 O          -5.0801   10.4475   -4.2245 O.co2   1  UNL1       -0.6337
      8 O          -2.3692   10.1105   -4.0951 O.3     1  UNL1       -0.0930
      9 O          -3.5603   12.4745   -4.1426 O.3     1  UNL1       -0.2057
     10 C          -4.2424   13.5536   -3.5346 C.3     1  UNL1        0.1232
     11 C          -5.6219   13.0435   -3.2373 C.3     1  UNL1        0.1214
     12 O          -5.6378   12.7613   -1.8340 O.3     1  UNL1       -0.3453
     13 C          -6.7322   14.0989   -3.4930 C.3     1  UNL1        0.1593
     14 O          -7.9458   13.4261   -3.9364 O.3     1  UNL1       -0.2421
     15 P          -7.9730   12.5472   -5.4004 P.3     1  UNL1       -0.0004
     16 O          -9.2980   12.9470   -5.9360 O.co2   1  UNL1       -0.6646
     17 O          -6.8037   13.0997   -6.1306 O.co2   1  UNL1       -0.6646
     18 O          -7.7994   11.1100   -5.0285 O.co2   1  UNL1       -0.6646
     19 C          -6.9019   14.6861   -2.0971 C.3     1  UNL1        0.1329
     20 O          -8.1859   15.3351   -1.9627 O.3     1  UNL1       -0.3845
     21 C          -6.8327   13.3458   -1.3388 C.3     1  UNL1        0.1668
     22 N          -6.6250   13.4178    0.1251 N.ar    1  UNL1       -0.2855
     23 C          -7.6520   13.2865    1.0260 C.ar    1  UNL1        0.1004
     24 N          -7.2844   13.3875    2.2690 N.ar    1  UNL1       -0.2306
     25 C          -5.8711   13.6089    2.2168 C.ar    1  UNL1        0.1473
     26 C          -4.8676   13.7872    3.2623 C.ar    1  UNL1        0.1472
     27 N          -5.1893   13.8683    4.5680 N.pl3   1  UNL1       -0.3413
     28 N          -3.5773   13.9456    2.8659 N.ar    1  UNL1       -0.2188
     29 C          -3.3208   13.9491    1.5495 C.ar    1  UNL1        0.1205
     30 N          -4.1431   13.8077    0.4817 N.ar    1  UNL1       -0.2159
     31 C          -5.4487   13.6294    0.8920 C.ar    1  UNL1        0.1674
     32 H          -3.7401   13.8504   -2.6138 H       1  UNL1        0.0631
     33 H          -4.2951   14.3981   -4.2216 H       1  UNL1        0.0631
     34 H          -5.8221   12.1369   -3.8084 H       1  UNL1        0.0650
     35 H          -6.4091   14.8548   -4.2088 H       1  UNL1        0.0694
     36 H          -6.0791   15.3493   -1.8303 H       1  UNL1        0.0667
     37 H          -7.8298   12.9707   -1.5695 H       1  UNL1        0.0866
     38 H          -8.6759   13.1143    0.7285 H       1  UNL1        0.1030
     39 H          -2.2801   14.0887    1.2971 H       1  UNL1        0.1048
     40 H          -5.4629   13.0378    5.0734 H       1  UNL1        0.1438
     41 H          -5.1571   14.7598    5.0415 H       1  UNL1        0.1438
     42 H          -8.4741   15.2887   -1.0482 H       1  UNL1        0.2101
@<TRIPOS>BOND
     1     1     2    1
     2     1     3    1
     3     1     4    1
     4     1     8    1
     5     5     6    1
     6     5     7    1
     7     5     8    1
     8     5     9    1
     9     9    10    1
    10    10    11    1
    11    11    12    1
    12    11    13    1
    13    12    21    1
    14    13    14    1
    15    13    19    1
    16    14    15    1
    17    15    16    1
    18    15    17    1
    19    15    18    1
    20    19    20    1
    21    19    21    1
    22    21    22    1
    23    22    23   ar
    24    22    31   ar
    25    23    24   ar
    26    24    25   ar
    27    25    26   ar
    28    25    31   ar
    29    26    27    1
    30    26    28   ar
    31    28    29   ar
    32    29    30   ar
    33    30    31   ar
    34    32    10    1
    35    33    10    1
    36    11    34    1
    37    13    35    1
    38    19    36    1
    39    21    37    1
    40    38    23    1
    41    39    29    1
    42    40    27    1
    43    41    27    1
    44    42    20    1
@<TRIPOS>SUBSTRUCTURE
     1 UNL1        1 TEMP              0 ****  ****    0 ROOT

########## Name:	7	2229.3  0.314718
@<TRIPOS>MOLECULE
af2_protein.mol27	
 42 44 1 0 0
SMALL
GASTEIGER


@<TRIPOS>ATOM
      1 P          -2.6423    8.0963   -3.6441 P.3     1  UNL1        0.0544
      2 O          -3.2998    7.1416   -4.5592 O.co2   1  UNL1       -0.6615
      3 O          -1.2089    8.3984   -3.9771 O.co2   1  UNL1       -0.6615
      4 O          -2.8612    7.7964   -2.2099 O.co2   1  UNL1       -0.6615
      5 P          -3.0474   11.2084   -3.7442 P.3     1  UNL1        0.2491
      6 O          -2.0536   12.2305   -3.3008 O.co2   1  UNL1       -0.6337
      7 O          -3.8711   10.5247   -2.7106 O.co2   1  UNL1       -0.6337
      8 O          -3.4042    9.5333   -3.8983 O.3     1  UNL1       -0.0930
      9 O          -4.2371   11.9560   -4.5665 O.3     1  UNL1       -0.2057
     10 C          -4.7950   13.1669   -4.0954 C.3     1  UNL1        0.1232
     11 C          -6.0729   12.7828   -3.4091 C.3     1  UNL1        0.1214
     12 O          -5.7229   12.5433   -2.0419 O.3     1  UNL1       -0.3453
     13 C          -7.1309   13.9198   -3.4065 C.3     1  UNL1        0.1593
     14 O          -8.4652   13.3385   -3.4688 O.3     1  UNL1       -0.2421
     15 P          -8.9576   12.4233   -4.8240 P.3     1  UNL1       -0.0004
     16 O         -10.2783   13.0389   -5.1057 O.co2   1  UNL1       -0.6646
     17 O          -7.8962   12.7224   -5.8187 O.co2   1  UNL1       -0.6646
     18 O          -8.9571   10.9943   -4.3860 O.co2   1  UNL1       -0.6646
     19 C          -6.8672   14.5589   -2.0484 C.3     1  UNL1        0.1329
     20 O          -8.0141   15.3167   -1.6032 O.3     1  UNL1       -0.3845
     21 C          -6.6898   13.2399   -1.2708 C.3     1  UNL1        0.1668
     22 N          -6.0831   13.3362    0.0760 N.ar    1  UNL1       -0.2855
     23 C          -6.7640   13.0040    1.2204 C.ar    1  UNL1        0.1004
     24 N          -6.0761   13.1612    2.3124 N.ar    1  UNL1       -0.2306
     25 C          -4.8021   13.6473    1.8767 C.ar    1  UNL1        0.1473
     26 C          -3.5874   14.0029    2.6046 C.ar    1  UNL1        0.1472
     27 N          -3.5259   14.0093    3.9505 N.pl3   1  UNL1       -0.3413
     28 N          -2.5176   14.4070    1.8703 N.ar    1  UNL1       -0.2188
     29 C          -2.6587   14.4715    0.5382 C.ar    1  UNL1        0.1205
     30 N          -3.7161   14.1866   -0.2600 N.ar    1  UNL1       -0.2159
     31 C          -4.7927   13.7600    0.4906 C.ar    1  UNL1        0.1674
     32 H          -4.0387   13.4469   -3.3620 H       1  UNL1        0.0631
     33 H          -4.9730   13.9928   -4.7840 H       1  UNL1        0.0631
     34 H          -6.4878   11.8802   -3.8577 H       1  UNL1        0.0650
     35 H          -6.9630   14.6251   -4.2203 H       1  UNL1        0.0694
     36 H          -5.9569   15.1583   -2.0492 H       1  UNL1        0.0667
     37 H          -7.6270   12.6846   -1.2334 H       1  UNL1        0.0866
     38 H          -7.7821   12.6434    1.2144 H       1  UNL1        0.1030
     39 H          -1.7783   14.8084    0.0111 H       1  UNL1        0.1048
     40 H          -3.4880   13.1372    4.4585 H       1  UNL1        0.1438
     41 H          -3.5179   14.8862    4.4514 H       1  UNL1        0.1438
     42 H          -8.0424   15.3210   -0.6437 H       1  UNL1        0.2101
@<TRIPOS>BOND
     1     1     2    1
     2     1     3    1
     3     1     4    1
     4     1     8    1
     5     5     6    1
     6     5     7    1
     7     5     8    1
     8     5     9    1
     9     9    10    1
    10    10    11    1
    11    11    12    1
    12    11    13    1
    13    12    21    1
    14    13    14    1
    15    13    19    1
    16    14    15    1
    17    15    16    1
    18    15    17    1
    19    15    18    1
    20    19    20    1
    21    19    21    1
    22    21    22    1
    23    22    23   ar
    24    22    31   ar
    25    23    24   ar
    26    24    25   ar
    27    25    26   ar
    28    25    31   ar
    29    26    27    1
    30    26    28   ar
    31    28    29   ar
    32    29    30   ar
    33    30    31   ar
    34    32    10    1
    35    33    10    1
    36    11    34    1
    37    13    35    1
    38    19    36    1
    39    21    37    1
    40    38    23    1
    41    39    29    1
    42    40    27    1
    43    41    27    1
    44    42    20    1
@<TRIPOS>SUBSTRUCTURE
     1 UNL1        1 TEMP              0 ****  ****    0 ROOT

########## Name:	8	2255.84  0.314625
@<TRIPOS>MOLECULE
af2_protein.mol28	
 42 44 1 0 0
SMALL
GASTEIGER


@<TRIPOS>ATOM
      1 P          -2.7364    8.2910   -3.9182 P.3     1  UNL1        0.0544
      2 O          -3.5819    7.2418   -4.5226 O.co2   1  UNL1       -0.6615
      3 O          -1.5971    8.7530   -4.7816 O.co2   1  UNL1       -0.6615
      4 O          -2.3351    8.0037   -2.5213 O.co2   1  UNL1       -0.6615
      5 P          -3.5155   11.3183   -3.6229 P.3     1  UNL1        0.2491
      6 O          -2.5529   12.4520   -3.4915 O.co2   1  UNL1       -0.6337
      7 O          -3.9011   10.5693   -2.3962 O.co2   1  UNL1       -0.6337
      8 O          -3.7025    9.6201   -3.8175 O.3     1  UNL1       -0.0930
      9 O          -4.8140   11.9594   -4.3667 O.3     1  UNL1       -0.2057
     10 C          -5.4210   13.1396   -3.8787 C.3     1  UNL1        0.1232
     11 C          -6.5926   12.6825   -3.0602 C.3     1  UNL1        0.1214
     12 O          -6.0954   12.5174   -1.7281 O.3     1  UNL1       -0.3453
     13 C          -7.7326   13.7345   -2.9840 C.3     1  UNL1        0.1593
     14 O          -9.0163   13.0510   -2.8995 O.3     1  UNL1       -0.2421
     15 P          -9.5666   12.0632   -4.1794 P.3     1  UNL1       -0.0004
     16 O         -11.0327   12.2673   -4.0727 O.co2   1  UNL1       -0.6646
     17 O          -8.9268   12.6861   -5.3661 O.co2   1  UNL1       -0.6646
     18 O          -9.0527   10.6884   -3.8970 O.co2   1  UNL1       -0.6646
     19 C          -7.3917   14.4381   -1.6759 C.3     1  UNL1        0.1329
     20 O          -8.5473   15.1206   -1.1406 O.3     1  UNL1       -0.3845
     21 C          -7.0363   13.1638   -0.8846 C.3     1  UNL1        0.1668
     22 N          -6.3130   13.3523    0.3931 N.ar    1  UNL1       -0.2855
     23 C          -6.8525   13.0083    1.6073 C.ar    1  UNL1        0.1004
     24 N          -6.0778   13.2550    2.6218 N.ar    1  UNL1       -0.2306
     25 C          -4.8941   13.8220    2.0503 C.ar    1  UNL1        0.1473
     26 C          -3.6475   14.2943    2.6458 C.ar    1  UNL1        0.1472
     27 N          -3.4580   14.3513    3.9785 N.pl3   1  UNL1       -0.3413
     28 N          -2.6884   14.7538    1.7995 N.ar    1  UNL1       -0.2188
     29 C          -2.9612   14.7616    0.4864 C.ar    1  UNL1        0.1205
     30 N          -4.0641   14.3695   -0.1963 N.ar    1  UNL1       -0.2159
     31 C          -5.0265   13.8876    0.6676 C.ar    1  UNL1        0.1674
     32 H          -4.6226   13.5016   -3.2308 H       1  UNL1        0.0631
     33 H          -5.7292   13.9254   -4.5682 H       1  UNL1        0.0631
     34 H          -6.9755   11.7359   -3.4418 H       1  UNL1        0.0650
     35 H          -7.7026   14.4276   -3.8246 H       1  UNL1        0.0694
     36 H          -6.5135   15.0829   -1.7049 H       1  UNL1        0.0667
     37 H          -7.9185   12.5400   -0.7406 H       1  UNL1        0.0866
     38 H          -7.8346   12.5709    1.7108 H       1  UNL1        0.1030
     39 H          -2.1649   15.1467   -0.1333 H       1  UNL1        0.1048
     40 H          -3.3024   13.5027    4.5034 H       1  UNL1        0.1438
     41 H          -3.4718   15.2430    4.4527 H       1  UNL1        0.1438
     42 H          -8.5210   15.0910   -0.1814 H       1  UNL1        0.2101
@<TRIPOS>BOND
     1     1     2    1
     2     1     3    1
     3     1     4    1
     4     1     8    1
     5     5     6    1
     6     5     7    1
     7     5     8    1
     8     5     9    1
     9     9    10    1
    10    10    11    1
    11    11    12    1
    12    11    13    1
    13    12    21    1
    14    13    14    1
    15    13    19    1
    16    14    15    1
    17    15    16    1
    18    15    17    1
    19    15    18    1
    20    19    20    1
    21    19    21    1
    22    21    22    1
    23    22    23   ar
    24    22    31   ar
    25    23    24   ar
    26    24    25   ar
    27    25    26   ar
    28    25    31   ar
    29    26    27    1
    30    26    28   ar
    31    28    29   ar
    32    29    30   ar
    33    30    31   ar
    34    32    10    1
    35    33    10    1
    36    11    34    1
    37    13    35    1
    38    19    36    1
    39    21    37    1
    40    38    23    1
    41    39    29    1
    42    40    27    1
    43    41    27    1
    44    42    20    1
@<TRIPOS>SUBSTRUCTURE
     1 UNL1        1 TEMP              0 ****  ****    0 ROOT

########## Name:	9	2254.28  0.348558
@<TRIPOS>MOLECULE
af2_protein.mol29	
 42 44 1 0 0
SMALL
GASTEIGER


@<TRIPOS>ATOM
      1 P          -1.6047    8.2292   -3.4039 P.3     1  UNL1        0.0544
      2 O          -1.7911    7.3699   -4.5904 O.co2   1  UNL1       -0.6615
      3 O          -0.2881    8.9510   -3.3529 O.co2   1  UNL1       -0.6615
      4 O          -1.9622    7.5695   -2.1265 O.co2   1  UNL1       -0.6615
      5 P          -2.9502   11.0306   -2.9561 P.3     1  UNL1        0.2491
      6 O          -2.1889   12.0750   -2.2086 O.co2   1  UNL1       -0.6337
      7 O          -3.8429   10.1191   -2.1902 O.co2   1  UNL1       -0.6337
      8 O          -2.7005    9.4458   -3.5747 O.3     1  UNL1       -0.0930
      9 O          -3.8900   11.7590   -4.0681 O.3     1  UNL1       -0.2057
     10 C          -4.7134   12.8539   -3.7178 C.3     1  UNL1        0.1232
     11 C          -5.9633   12.2524   -3.1454 C.3     1  UNL1        0.1214
     12 O          -5.7914   12.2779   -1.7246 O.3     1  UNL1       -0.3453
     13 C          -7.2387   13.0826   -3.4557 C.3     1  UNL1        0.1593
     14 O          -8.3781   12.1852   -3.5924 O.3     1  UNL1       -0.2421
     15 P          -8.5296   11.1659   -4.9543 P.3     1  UNL1       -0.0004
     16 O          -9.9027   11.5077   -5.4016 O.co2   1  UNL1       -0.6646
     17 O          -7.4387   11.6462   -5.8402 O.co2   1  UNL1       -0.6646
     18 O          -8.3061    9.7729   -4.4607 O.co2   1  UNL1       -0.6646
     19 C          -7.3481   13.9297   -2.1937 C.3     1  UNL1        0.1329
     20 O          -8.6934   14.4282   -2.0217 O.3     1  UNL1       -0.3845
     21 C          -7.0020   12.8023   -1.2011 C.3     1  UNL1        0.1668
     22 N          -6.6566   13.2116    0.1789 N.ar    1  UNL1       -0.2855
     23 C          -7.5910   13.3025    1.1801 C.ar    1  UNL1        0.1004
     24 N          -7.1079   13.6872    2.3242 N.ar    1  UNL1       -0.2306
     25 C          -5.7093   13.8784    2.0863 C.ar    1  UNL1        0.1473
     26 C          -4.6132   14.2869    2.9601 C.ar    1  UNL1        0.1472
     27 N          -4.8099   14.6727    4.2358 N.pl3   1  UNL1       -0.3413
     28 N          -3.3690   14.3377    2.4156 N.ar    1  UNL1       -0.2188
     29 C          -3.2394   14.0323    1.1161 C.ar    1  UNL1        0.1205
     30 N          -4.1578   13.6529    0.1947 N.ar    1  UNL1       -0.2159
     31 C          -5.4156   13.5862    0.7588 C.ar    1  UNL1        0.1674
     32 H          -4.1680   13.4011   -2.9489 H       1  UNL1        0.0631
     33 H          -4.9621   13.5182   -4.5453 H       1  UNL1        0.0631
     34 H          -6.0846   11.2268   -3.4941 H       1  UNL1        0.0650
     35 H          -7.1947   13.8014   -4.2739 H       1  UNL1        0.0694
     36 H          -6.6138   14.7349   -2.2155 H       1  UNL1        0.0667
     37 H          -8.0111   12.3922   -1.2412 H       1  UNL1        0.0866
     38 H          -8.6360   13.0744    1.0307 H       1  UNL1        0.1030
     39 H          -2.2296   14.1005    0.7393 H       1  UNL1        0.1048
     40 H          -5.0222   13.9851    4.9445 H       1  UNL1        0.1438
     41 H          -4.7453   15.6497    4.4835 H       1  UNL1        0.1438
     42 H          -8.8626   14.5781   -1.0887 H       1  UNL1        0.2101
@<TRIPOS>BOND
     1     1     2    1
     2     1     3    1
     3     1     4    1
     4     1     8    1
     5     5     6    1
     6     5     7    1
     7     5     8    1
     8     5     9    1
     9     9    10    1
    10    10    11    1
    11    11    12    1
    12    11    13    1
    13    12    21    1
    14    13    14    1
    15    13    19    1
    16    14    15    1
    17    15    16    1
    18    15    17    1
    19    15    18    1
    20    19    20    1
    21    19    21    1
    22    21    22    1
    23    22    23   ar
    24    22    31   ar
    25    23    24   ar
    26    24    25   ar
    27    25    26   ar
    28    25    31   ar
    29    26    27    1
    30    26    28   ar
    31    28    29   ar
    32    29    30   ar
    33    30    31   ar
    34    32    10    1
    35    33    10    1
    36    11    34    1
    37    13    35    1
    38    19    36    1
    39    21    37    1
    40    38    23    1
    41    39    29    1
    42    40    27    1
    43    41    27    1
    44    42    20    1
@<TRIPOS>SUBSTRUCTURE
     1 UNL1        1 TEMP              0 ****  ****    0 ROOT

########## Name:	10	2388.41  0.296902
@<TRIPOS>MOLECULE
af2_protein.mol210	
 42 44 1 0 0
SMALL
GASTEIGER


@<TRIPOS>ATOM
      1 P          -1.5382    9.0708   -3.3775 P.3     1  UNL1        0.0544
      2 O          -1.4423    8.0579   -4.4480 O.co2   1  UNL1       -0.6615
      3 O          -0.3705   10.0126   -3.2989 O.co2   1  UNL1       -0.6615
      4 O          -1.9333    8.5145   -2.0625 O.co2   1  UNL1       -0.6615
      5 P          -3.4501   11.5612   -3.3400 P.3     1  UNL1        0.2491
      6 O          -2.9802   12.5518   -2.3266 O.co2   1  UNL1       -0.6337
      7 O          -4.3554   10.4669   -2.8956 O.co2   1  UNL1       -0.6337
      8 O          -2.7877   10.0480   -3.8178 O.3     1  UNL1       -0.0930
      9 O          -3.7976   12.3147   -4.7406 O.3     1  UNL1       -0.2057
     10 C          -4.7815   13.3288   -4.7946 C.3     1  UNL1        0.1232
     11 C          -6.0509   12.6858   -4.3182 C.3     1  UNL1        0.1214
     12 O          -5.8261   12.3533   -2.9441 O.3     1  UNL1       -0.3453
     13 C          -7.2719   13.6452   -4.3514 C.3     1  UNL1        0.1593
     14 O          -8.4787   12.8817   -4.6392 O.3     1  UNL1       -0.2421
     15 P          -8.4741   11.6540   -5.8264 P.3     1  UNL1       -0.0004
     16 O          -9.6940   12.0092   -6.5932 O.co2   1  UNL1       -0.6646
     17 O          -7.1907   11.8940   -6.5342 O.co2   1  UNL1       -0.6646
     18 O          -8.4949   10.3561   -5.0855 O.co2   1  UNL1       -0.6646
     19 C          -7.2724   14.1643   -2.9186 C.3     1  UNL1        0.1329
     20 O          -8.5700   14.6894   -2.5604 O.3     1  UNL1       -0.3845
     21 C          -6.9748   12.8094   -2.2463 C.3     1  UNL1        0.1668
     22 N          -6.5503   12.8474   -0.8287 N.ar    1  UNL1       -0.2855
     23 C          -7.2323   12.1930    0.1664 C.ar    1  UNL1        0.1004
     24 N          -6.7202   12.3472    1.3514 N.ar    1  UNL1       -0.2306
     25 C          -5.5782   13.1868    1.1512 C.ar    1  UNL1        0.1473
     26 C          -4.5750   13.7131    2.0723 C.ar    1  UNL1        0.1472
     27 N          -4.6510   13.5330    3.4053 N.pl3   1  UNL1       -0.3413
     28 N          -3.5784   14.4693    1.5413 N.ar    1  UNL1       -0.2188
     29 C          -3.5985   14.6960    0.2196 C.ar    1  UNL1        0.1205
     30 N          -4.4618   14.2861   -0.7411 N.ar    1  UNL1       -0.2159
     31 C          -5.4607   13.5043   -0.1976 C.ar    1  UNL1        0.1674
     32 H          -4.1696   13.6366   -3.9467 H       1  UNL1        0.0631
     33 H          -5.0103   14.1891   -5.4235 H       1  UNL1        0.0631
     34 H          -6.2603   11.7859   -4.8965 H       1  UNL1        0.0650
     35 H          -6.9237   14.1898   -5.2289 H       1  UNL1        0.0694
     36 H          -6.4615   14.7402   -2.4730 H       1  UNL1        0.0667
     37 H          -7.7358   12.0446   -2.4012 H       1  UNL1        0.0866
     38 H          -8.1170   11.6018   -0.0188 H       1  UNL1        0.1030
     39 H          -2.7872   15.3110   -0.1410 H       1  UNL1        0.1048
     40 H          -4.4398   12.6302    3.8059 H       1  UNL1        0.1438
     41 H          -4.9194   14.3008    4.0040 H       1  UNL1        0.1438
     42 H          -8.8282   14.3469   -1.7016 H       1  UNL1        0.2101
@<TRIPOS>BOND
     1     1     2    1
     2     1     3    1
     3     1     4    1
     4     1     8    1
     5     5     6    1
     6     5     7    1
     7     5     8    1
     8     5     9    1
     9     9    10    1
    10    10    11    1
    11    11    12    1
    12    11    13    1
    13    12    21    1
    14    13    14    1
    15    13    19    1
    16    14    15    1
    17    15    16    1
    18    15    17    1
    19    15    18    1
    20    19    20    1
    21    19    21    1
    22    21    22    1
    23    22    23   ar
    24    22    31   ar
    25    23    24   ar
    26    24    25   ar
    27    25    26   ar
    28    25    31   ar
    29    26    27    1
    30    26    28   ar
    31    28    29   ar
    32    29    30   ar
    33    30    31   ar
    34    32    10    1
    35    33    10    1
    36    11    34    1
    37    13    35    1
    38    19    36    1
    39    21    37    1
    40    38    23    1
    41    39    29    1
    42    40    27    1
    43    41    27    1
    44    42    20    1
@<TRIPOS>SUBSTRUCTURE
     1 UNL1        1 TEMP              0 ****  ****    0 ROOT

########## Name:	11	2383.94  0.321938
@<TRIPOS>MOLECULE
af2_protein.mol211	
 42 44 1 0 0
SMALL
GASTEIGER


@<TRIPOS>ATOM
      1 P          -2.5015    8.2775   -4.0682 P.3     1  UNL1        0.0544
      2 O          -1.3251    8.3370   -4.9590 O.co2   1  UNL1       -0.6615
      3 O          -2.1786    8.2914   -2.6011 O.co2   1  UNL1       -0.6615
      4 O          -3.4826    7.2327   -4.4434 O.co2   1  UNL1       -0.6615
      5 P          -4.5368   10.6076   -3.5326 P.3     1  UNL1        0.2491
      6 O          -3.9534   10.4295   -2.1699 O.co2   1  UNL1       -0.6337
      7 O          -5.9829   10.3164   -3.7286 O.co2   1  UNL1       -0.6337
      8 O          -3.2909    9.7035   -4.2989 O.3     1  UNL1       -0.0930
      9 O          -4.3657   12.1165   -4.1194 O.3     1  UNL1       -0.2057
     10 C          -4.6925   13.2435   -3.3305 C.3     1  UNL1        0.1232
     11 C          -5.6628   12.7470   -2.2992 C.3     1  UNL1        0.1214
     12 O          -4.9320   12.6990   -1.0692 O.3     1  UNL1       -0.3453
     13 C          -6.8586   13.7114   -2.0706 C.3     1  UNL1        0.1593
     14 O          -8.0454   12.9379   -1.7313 O.3     1  UNL1       -0.2421
     15 P          -8.7520   11.8772   -2.8681 P.3     1  UNL1       -0.0004
     16 O         -10.1933   12.1226   -2.6135 O.co2   1  UNL1       -0.6646
     17 O          -8.2406   12.4012   -4.1602 O.co2   1  UNL1       -0.6646
     18 O          -8.2311   10.5135   -2.5475 O.co2   1  UNL1       -0.6646
     19 C          -6.3597   14.5146   -0.8755 C.3     1  UNL1        0.1329
     20 O          -7.4603   15.1371   -0.1763 O.3     1  UNL1       -0.3845
     21 C          -5.7660   13.3200   -0.1031 C.3     1  UNL1        0.1668
     22 N          -4.8530   13.6381    1.0178 N.ar    1  UNL1       -0.2855
     23 C          -5.1447   13.3257    2.3220 C.ar    1  UNL1        0.1004
     24 N          -4.2314   13.6901    3.1725 N.ar    1  UNL1       -0.2306
     25 C          -3.2162   14.3115    2.3771 C.ar    1  UNL1        0.1473
     26 C          -1.9309   14.9119    2.7224 C.ar    1  UNL1        0.1472
     27 N          -1.5211   15.0615    3.9971 N.pl3   1  UNL1       -0.3413
     28 N          -1.1742   15.3929    1.7011 N.ar    1  UNL1       -0.2188
     29 C          -1.6679   15.3026    0.4574 C.ar    1  UNL1        0.1205
     30 N          -2.8340   14.7879   -0.0026 N.ar    1  UNL1       -0.2159
     31 C          -3.5891   14.2854    1.0377 C.ar    1  UNL1        0.1674
     32 H          -3.8287   13.7030   -2.8499 H       1  UNL1        0.0631
     33 H          -5.1806   13.9615   -3.9894 H       1  UNL1        0.0631
     34 H          -6.0231   11.7532   -2.5649 H       1  UNL1        0.0650
     35 H          -7.0437   14.3813   -2.9102 H       1  UNL1        0.0694
     36 H          -5.5953   15.2376   -1.1600 H       1  UNL1        0.0667
     37 H          -6.5537   12.6401    0.2214 H       1  UNL1        0.0866
     38 H          -6.0533   12.8213    2.6160 H       1  UNL1        0.1030
     39 H          -1.0258   15.7104   -0.3093 H       1  UNL1        0.1048
     40 H          -1.2057   14.2595    4.5237 H       1  UNL1        0.1438
     41 H          -1.5295   15.9758    4.4262 H       1  UNL1        0.1438
     42 H          -7.2366   15.2329    0.7524 H       1  UNL1        0.2101
@<TRIPOS>BOND
     1     1     2    1
     2     1     3    1
     3     1     4    1
     4     1     8    1
     5     5     6    1
     6     5     7    1
     7     5     8    1
     8     5     9    1
     9     9    10    1
    10    10    11    1
    11    11    12    1
    12    11    13    1
    13    12    21    1
    14    13    14    1
    15    13    19    1
    16    14    15    1
    17    15    16    1
    18    15    17    1
    19    15    18    1
    20    19    20    1
    21    19    21    1
    22    21    22    1
    23    22    23   ar
    24    22    31   ar
    25    23    24   ar
    26    24    25   ar
    27    25    26   ar
    28    25    31   ar
    29    26    27    1
    30    26    28   ar
    31    28    29   ar
    32    29    30   ar
    33    30    31   ar
    34    32    10    1
    35    33    10    1
    36    11    34    1
    37    13    35    1
    38    19    36    1
    39    21    37    1
    40    38    23    1
    41    39    29    1
    42    40    27    1
    43    41    27    1
    44    42    20    1
@<TRIPOS>SUBSTRUCTURE
     1 UNL1        1 TEMP              0 ****  ****    0 ROOT

########## Name:	12	2269.36  0.316695
@<TRIPOS>MOLECULE
af2_protein.mol212	
 42 44 1 0 0
SMALL
GASTEIGER


@<TRIPOS>ATOM
      1 P          -2.8063    8.4346   -4.0689 P.3     1  UNL1        0.0544
      2 O          -3.8601    7.4550   -4.4018 O.co2   1  UNL1       -0.6615
      3 O          -1.7328    8.5790   -5.1099 O.co2   1  UNL1       -0.6615
      4 O          -2.2748    8.2957   -2.6931 O.co2   1  UNL1       -0.6615
      5 P          -3.1120   11.5562   -4.2135 P.3     1  UNL1        0.2491
      6 O          -2.0471   12.5327   -3.8370 O.co2   1  UNL1       -0.6337
      7 O          -3.5652   10.5725   -3.1931 O.co2   1  UNL1       -0.6337
      8 O          -3.5564    9.8998   -4.0883 O.3     1  UNL1       -0.0930
      9 O          -4.4740   12.3089   -4.6918 O.3     1  UNL1       -0.2057
     10 C          -5.0294   13.3602   -3.9265 C.3     1  UNL1        0.1232
     11 C          -6.1981   12.7590   -3.2023 C.3     1  UNL1        0.1214
     12 O          -5.7396   12.5015   -1.8710 O.3     1  UNL1       -0.3453
     13 C          -7.4052   13.7284   -3.0791 C.3     1  UNL1        0.1593
     14 O          -8.6445   12.9634   -3.1104 O.3     1  UNL1       -0.2421
     15 P          -9.0008   11.9296   -4.4223 P.3     1  UNL1       -0.0004
     16 O         -10.3945   12.3401   -4.7246 O.co2   1  UNL1       -0.6646
     17 O          -7.9904   12.3315   -5.4339 O.co2   1  UNL1       -0.6646
     18 O          -8.7996   10.5355   -3.9224 O.co2   1  UNL1       -0.6646
     19 C          -7.1576   14.3269   -1.6997 C.3     1  UNL1        0.1329
     20 O          -8.3731   14.8856   -1.1537 O.3     1  UNL1       -0.3845
     21 C          -6.7499   13.0086   -1.0126 C.3     1  UNL1        0.1668
     22 N          -6.0867   13.1213    0.3060 N.ar    1  UNL1       -0.2855
     23 C          -6.6365   12.6151    1.4571 C.ar    1  UNL1        0.1004
     24 N          -5.9182   12.8161    2.5220 N.ar    1  UNL1       -0.2306
     25 C          -4.7658   13.5276    2.0583 C.ar    1  UNL1        0.1473
     26 C          -3.5816   14.0313    2.7480 C.ar    1  UNL1        0.1472
     27 N          -3.4415   13.9670    4.0864 N.pl3   1  UNL1       -0.3413
     28 N          -2.6353   14.6468    1.9912 N.ar    1  UNL1       -0.2188
     29 C          -2.8643   14.7672    0.6753 C.ar    1  UNL1        0.1205
     30 N          -3.9089   14.3629   -0.0874 N.ar    1  UNL1       -0.2159
     31 C          -4.8573   13.7232    0.6845 C.ar    1  UNL1        0.1674
     32 H          -4.2798   13.7083   -3.2157 H       1  UNL1        0.0631
     33 H          -5.3624   14.1865   -4.5545 H       1  UNL1        0.0631
     34 H          -6.5054   11.8305   -3.6835 H       1  UNL1        0.0650
     35 H          -7.3363   14.4138   -3.9237 H       1  UNL1        0.0694
     36 H          -6.3213   15.0226   -1.6308 H       1  UNL1        0.0667
     37 H          -7.5832   12.3075   -0.9672 H       1  UNL1        0.0866
     38 H          -7.5831   12.0953    1.4767 H       1  UNL1        0.1030
     39 H          -2.0816   15.2734    0.1297 H       1  UNL1        0.1048
     40 H          -3.2354   13.0838    4.5309 H       1  UNL1        0.1438
     41 H          -3.5427   14.8020    4.6454 H       1  UNL1        0.1438
     42 H          -8.3808   14.7662   -0.2011 H       1  UNL1        0.2101
@<TRIPOS>BOND
     1     1     2    1
     2     1     3    1
     3     1     4    1
     4     1     8    1
     5     5     6    1
     6     5     7    1
     7     5     8    1
     8     5     9    1
     9     9    10    1
    10    10    11    1
    11    11    12    1
    12    11    13    1
    13    12    21    1
    14    13    14    1
    15    13    19    1
    16    14    15    1
    17    15    16    1
    18    15    17    1
    19    15    18    1
    20    19    20    1
    21    19    21    1
    22    21    22    1
    23    22    23   ar
    24    22    31   ar
    25    23    24   ar
    26    24    25   ar
    27    25    26   ar
    28    25    31   ar
    29    26    27    1
    30    26    28   ar
    31    28    29   ar
    32    29    30   ar
    33    30    31   ar
    34    32    10    1
    35    33    10    1
    36    11    34    1
    37    13    35    1
    38    19    36    1
    39    21    37    1
    40    38    23    1
    41    39    29    1
    42    40    27    1
    43    41    27    1
    44    42    20    1
@<TRIPOS>SUBSTRUCTURE
     1 UNL1        1 TEMP              0 ****  ****    0 ROOT

########## Name:	13	2307.96  0.319947
@<TRIPOS>MOLECULE
af2_protein.mol213	
 42 44 1 0 0
SMALL
GASTEIGER


@<TRIPOS>ATOM
      1 P          -1.3877    8.9822   -4.6194 P.3     1  UNL1        0.0544
      2 O          -1.0410    8.9858   -6.0550 O.co2   1  UNL1       -0.6615
      3 O          -0.6520    9.9992   -3.7940 O.co2   1  UNL1       -0.6615
      4 O          -1.4009    7.6312   -4.0115 O.co2   1  UNL1       -0.6615
      5 P          -3.9966   10.2431   -3.4099 P.3     1  UNL1        0.2491
      6 O          -2.9451   11.2475   -3.0715 O.co2   1  UNL1       -0.6337
      7 O          -4.6589    9.5075   -2.2987 O.co2   1  UNL1       -0.6337
      8 O          -2.9509    9.4937   -4.5510 O.3     1  UNL1       -0.0930
      9 O          -4.9653   11.1946   -4.3080 O.3     1  UNL1       -0.2057
     10 C          -5.4337   12.4315   -3.8081 C.3     1  UNL1        0.1232
     11 C          -6.7644   12.1359   -3.1808 C.3     1  UNL1        0.1214
     12 O          -6.5387   12.1464   -1.7673 O.3     1  UNL1       -0.3453
     13 C          -7.8324   13.2257   -3.4705 C.3     1  UNL1        0.1593
     14 O          -9.1479   12.6048   -3.5479 O.3     1  UNL1       -0.2421
     15 P          -9.5467   11.5599   -4.8385 P.3     1  UNL1       -0.0004
     16 O         -11.0073   11.8004   -4.9451 O.co2   1  UNL1       -0.6646
     17 O          -8.7339   12.1027   -5.9567 O.co2   1  UNL1       -0.6646
     18 O          -9.1155   10.1922   -4.4175 O.co2   1  UNL1       -0.6646
     19 C          -7.7027   14.0973   -2.2272 C.3     1  UNL1        0.1329
     20 O          -8.8950   14.8879   -2.0244 O.3     1  UNL1       -0.3845
     21 C          -7.5810   12.9381   -1.2184 C.3     1  UNL1        0.1668
     22 N          -7.1020   13.2830    0.1391 N.ar    1  UNL1       -0.2855
     23 C          -7.9166   13.2473    1.2431 C.ar    1  UNL1        0.1004
     24 N          -7.3271   13.5918    2.3495 N.ar    1  UNL1       -0.2306
     25 C          -5.9802   13.8925    1.9694 C.ar    1  UNL1        0.1473
     26 C          -4.8161   14.3194    2.7406 C.ar    1  UNL1        0.1472
     27 N          -4.8853   14.6104    4.0542 N.pl3   1  UNL1       -0.3413
     28 N          -3.6496   14.4888    2.0642 N.ar    1  UNL1       -0.2188
     29 C          -3.6546   14.2747    0.7402 C.ar    1  UNL1        0.1205
     30 N          -4.6499   13.8919   -0.0960 N.ar    1  UNL1       -0.2159
     31 C          -5.8266   13.7044    0.6002 C.ar    1  UNL1        0.1674
     32 H          -4.7516   12.8555   -3.0710 H       1  UNL1        0.0631
     33 H          -5.5579   13.1205   -4.6435 H       1  UNL1        0.0631
     34 H          -7.1250   11.1579   -3.4997 H       1  UNL1        0.0650
     35 H          -7.6376   13.8604   -4.3350 H       1  UNL1        0.0694
     36 H          -6.8037   14.7130   -2.2522 H       1  UNL1        0.0667
     37 H          -8.5612   12.4635   -1.1731 H       1  UNL1        0.0866
     38 H          -8.9562   12.9582    1.1968 H       1  UNL1        0.1030
     39 H          -2.7018   14.4350    0.2577 H       1  UNL1        0.1048
     40 H          -4.9711   13.8671    4.7325 H       1  UNL1        0.1438
     41 H          -4.8514   15.5722    4.3607 H       1  UNL1        0.1438
     42 H          -9.0114   15.0572   -1.0867 H       1  UNL1        0.2101
@<TRIPOS>BOND
     1     1     2    1
     2     1     3    1
     3     1     4    1
     4     1     8    1
     5     5     6    1
     6     5     7    1
     7     5     8    1
     8     5     9    1
     9     9    10    1
    10    10    11    1
    11    11    12    1
    12    11    13    1
    13    12    21    1
    14    13    14    1
    15    13    19    1
    16    14    15    1
    17    15    16    1
    18    15    17    1
    19    15    18    1
    20    19    20    1
    21    19    21    1
    22    21    22    1
    23    22    23   ar
    24    22    31   ar
    25    23    24   ar
    26    24    25   ar
    27    25    26   ar
    28    25    31   ar
    29    26    27    1
    30    26    28   ar
    31    28    29   ar
    32    29    30   ar
    33    30    31   ar
    34    32    10    1
    35    33    10    1
    36    11    34    1
    37    13    35    1
    38    19    36    1
    39    21    37    1
    40    38    23    1
    41    39    29    1
    42    40    27    1
    43    41    27    1
    44    42    20    1
@<TRIPOS>SUBSTRUCTURE
     1 UNL1        1 TEMP              0 ****  ****    0 ROOT

########## Name:	14	2228.78  0.314772
@<TRIPOS>MOLECULE
af2_protein.mol214	
 42 44 1 0 0
SMALL
GASTEIGER


@<TRIPOS>ATOM
      1 P          -2.6805    8.4417   -3.4397 P.3     1  UNL1        0.0544
      2 O          -2.2871    8.1276   -2.0513 O.co2   1  UNL1       -0.6615
      3 O          -4.0408    7.9410   -3.8346 O.co2   1  UNL1       -0.6615
      4 O          -1.6308    8.1405   -4.4407 O.co2   1  UNL1       -0.6615
      5 P          -3.6167   11.2547   -4.4738 P.3     1  UNL1        0.2491
      6 O          -4.9524   10.6549   -4.7657 O.co2   1  UNL1       -0.6337
      7 O          -2.7774   11.7072   -5.6163 O.co2   1  UNL1       -0.6337
      8 O          -2.8495   10.0787   -3.4813 O.3     1  UNL1       -0.0930
      9 O          -3.8770   12.5187   -3.4814 O.3     1  UNL1       -0.2057
     10 C          -4.8495   13.4971   -3.7919 C.3     1  UNL1        0.1232
     11 C          -6.1305   12.9985   -3.1902 C.3     1  UNL1        0.1214
     12 O          -5.8230   12.6823   -1.8283 O.3     1  UNL1       -0.3453
     13 C          -7.2498   14.0747   -3.1568 C.3     1  UNL1        0.1593
     14 O          -8.5458   13.4293   -3.3171 O.3     1  UNL1       -0.2421
     15 P          -8.9314   12.5869   -4.7518 P.3     1  UNL1       -0.0004
     16 O         -10.2720   13.1500   -5.0489 O.co2   1  UNL1       -0.6646
     17 O          -7.8492   13.0112   -5.6762 O.co2   1  UNL1       -0.6646
     18 O          -8.8686   11.1327   -4.4125 O.co2   1  UNL1       -0.6646
     19 C          -7.0771   14.6298   -1.7481 C.3     1  UNL1        0.1329
     20 O          -8.2815   15.2926   -1.3033 O.3     1  UNL1       -0.3845
     21 C          -6.8576   13.2706   -1.0550 C.3     1  UNL1        0.1668
     22 N          -6.3119   13.3040    0.3206 N.ar    1  UNL1       -0.2855
     23 C          -7.0096   12.8354    1.4057 C.ar    1  UNL1        0.1004
     24 N          -6.3778   12.9551    2.5356 N.ar    1  UNL1       -0.2306
     25 C          -5.1276   13.5633    2.1943 C.ar    1  UNL1        0.1473
     26 C          -3.9716   13.9463    2.9997 C.ar    1  UNL1        0.1472
     27 N          -3.9625   13.8515    4.3436 N.pl3   1  UNL1       -0.3413
     28 N          -2.9074   14.4819    2.3458 N.ar    1  UNL1       -0.2188
     29 C          -3.0016   14.6404    1.0174 C.ar    1  UNL1        0.1205
     30 N          -4.0034   14.3444    0.1542 N.ar    1  UNL1       -0.2159
     31 C          -5.0734   13.7847    0.8225 C.ar    1  UNL1        0.1674
     32 H          -4.1402   13.7645   -3.0086 H       1  UNL1        0.0631
     33 H          -5.0456   14.3588   -4.4299 H       1  UNL1        0.0631
     34 H          -6.4759   12.1089   -3.7170 H       1  UNL1        0.0650
     35 H          -7.0890   14.8434   -3.9126 H       1  UNL1        0.0694
     36 H          -6.2024   15.2752   -1.6680 H       1  UNL1        0.0667
     37 H          -7.7516   12.6488   -1.1008 H       1  UNL1        0.0866
     38 H          -7.9971   12.4049    1.3277 H       1  UNL1        0.1030
     39 H          -2.1292   15.0794    0.5565 H       1  UNL1        0.1048
     40 H          -3.8794   12.9472    4.7857 H       1  UNL1        0.1438
     41 H          -4.0389   14.6848    4.9091 H       1  UNL1        0.1438
     42 H          -8.3485   15.2278   -0.3478 H       1  UNL1        0.2101
@<TRIPOS>BOND
     1     1     2    1
     2     1     3    1
     3     1     4    1
     4     1     8    1
     5     5     6    1
     6     5     7    1
     7     5     8    1
     8     5     9    1
     9     9    10    1
    10    10    11    1
    11    11    12    1
    12    11    13    1
    13    12    21    1
    14    13    14    1
    15    13    19    1
    16    14    15    1
    17    15    16    1
    18    15    17    1
    19    15    18    1
    20    19    20    1
    21    19    21    1
    22    21    22    1
    23    22    23   ar
    24    22    31   ar
    25    23    24   ar
    26    24    25   ar
    27    25    26   ar
    28    25    31   ar
    29    26    27    1
    30    26    28   ar
    31    28    29   ar
    32    29    30   ar
    33    30    31   ar
    34    32    10    1
    35    33    10    1
    36    11    34    1
    37    13    35    1
    38    19    36    1
    39    21    37    1
    40    38    23    1
    41    39    29    1
    42    40    27    1
    43    41    27    1
    44    42    20    1
@<TRIPOS>SUBSTRUCTURE
     1 UNL1        1 TEMP              0 ****  ****    0 ROOT

########## Name:	15	2256.46  0.326642
@<TRIPOS>MOLECULE
af2_protein.mol215	
 42 44 1 0 0
SMALL
GASTEIGER


@<TRIPOS>ATOM
      1 P          -2.0210    8.6540   -3.5434 P.3     1  UNL1        0.0544
      2 O          -0.7831    8.7845   -4.3381 O.co2   1  UNL1       -0.6615
      3 O          -1.8574    8.9363   -2.0769 O.co2   1  UNL1       -0.6615
      4 O          -2.7810    7.4130   -3.8210 O.co2   1  UNL1       -0.6615
      5 P          -4.3600   10.7478   -3.4798 P.3     1  UNL1        0.2491
      6 O          -3.7982   10.9527   -2.1117 O.co2   1  UNL1       -0.6337
      7 O          -5.7344   10.1915   -3.6062 O.co2   1  UNL1       -0.6337
      8 O          -2.9973    9.8744   -4.0604 O.3     1  UNL1       -0.0930
      9 O          -4.2294   12.2151   -4.1727 O.3     1  UNL1       -0.2057
     10 C          -4.7257   13.3702   -3.5256 C.3     1  UNL1        0.1232
     11 C          -6.0902   12.9978   -3.0247 C.3     1  UNL1        0.1214
     12 O          -5.9261   12.7019   -1.6337 O.3     1  UNL1       -0.3453
     13 C          -7.1137   14.1624   -3.1157 C.3     1  UNL1        0.1593
     14 O          -8.4414   13.6202   -3.3713 O.3     1  UNL1       -0.2421
     15 P          -8.8015   12.8522   -4.8536 P.3     1  UNL1       -0.0004
     16 O         -10.1197   13.4593   -5.1640 O.co2   1  UNL1       -0.6646
     17 O          -7.6826   13.2920   -5.7254 O.co2   1  UNL1       -0.6646
     18 O          -8.7812   11.3832   -4.5791 O.co2   1  UNL1       -0.6646
     19 C          -7.0141   14.7470   -1.7119 C.3     1  UNL1        0.1329
     20 O          -8.1917   15.5201   -1.3900 O.3     1  UNL1       -0.3845
     21 C          -6.9690   13.3976   -0.9681 C.3     1  UNL1        0.1668
     22 N          -6.5402   13.4310    0.4483 N.ar    1  UNL1       -0.2855
     23 C          -7.3696   13.0734    1.4818 C.ar    1  UNL1        0.1004
     24 N          -6.8262   13.1749    2.6585 N.ar    1  UNL1       -0.2306
     25 C          -5.4978   13.6469    2.4097 C.ar    1  UNL1        0.1473
     26 C          -4.3814   13.9476    3.3013 C.ar    1  UNL1        0.1472
     27 N          -4.4946   13.9038    4.6431 N.pl3   1  UNL1       -0.3413
     28 N          -3.2182   14.3532    2.7272 N.ar    1  UNL1       -0.2188
     29 C          -3.1843   14.4692    1.3915 C.ar    1  UNL1        0.1205
     30 N          -4.1344   14.2380    0.4533 N.ar    1  UNL1       -0.2159
     31 C          -5.3068   13.8095    1.0419 C.ar    1  UNL1        0.1674
     32 H          -4.0649   13.6041   -2.6909 H       1  UNL1        0.0631
     33 H          -4.7941   14.2239   -4.1999 H       1  UNL1        0.0631
     34 H          -6.4636   12.1227   -3.5567 H       1  UNL1        0.0650
     35 H          -6.8533   14.9394   -3.8343 H       1  UNL1        0.0694
     36 H          -6.0989   15.3252   -1.5858 H       1  UNL1        0.0667
     37 H          -7.9131   12.8632   -1.0733 H       1  UNL1        0.0866
     38 H          -8.3847   12.7369    1.3306 H       1  UNL1        0.1030
     39 H          -2.2371   14.8045    0.9957 H       1  UNL1        0.1048
     40 H          -4.5388   13.0132    5.1175 H       1  UNL1        0.1438
     41 H          -4.5355   14.7616    5.1746 H       1  UNL1        0.1438
     42 H          -8.3371   15.5022   -0.4413 H       1  UNL1        0.2101
@<TRIPOS>BOND
     1     1     2    1
     2     1     3    1
     3     1     4    1
     4     1     8    1
     5     5     6    1
     6     5     7    1
     7     5     8    1
     8     5     9    1
     9     9    10    1
    10    10    11    1
    11    11    12    1
    12    11    13    1
    13    12    21    1
    14    13    14    1
    15    13    19    1
    16    14    15    1
    17    15    16    1
    18    15    17    1
    19    15    18    1
    20    19    20    1
    21    19    21    1
    22    21    22    1
    23    22    23   ar
    24    22    31   ar
    25    23    24   ar
    26    24    25   ar
    27    25    26   ar
    28    25    31   ar
    29    26    27    1
    30    26    28   ar
    31    28    29   ar
    32    29    30   ar
    33    30    31   ar
    34    32    10    1
    35    33    10    1
    36    11    34    1
    37    13    35    1
    38    19    36    1
    39    21    37    1
    40    38    23    1
    41    39    29    1
    42    40    27    1
    43    41    27    1
    44    42    20    1
@<TRIPOS>SUBSTRUCTURE
     1 UNL1        1 TEMP              0 ****  ****    0 ROOT

########## Name:	16	2268.99  0.325165
@<TRIPOS>MOLECULE
af2_protein.mol216	
 42 44 1 0 0
SMALL
GASTEIGER


@<TRIPOS>ATOM
      1 P          -1.5412    9.0315   -4.5715 P.3     1  UNL1        0.0544
      2 O          -0.5267    9.5631   -5.5038 O.co2   1  UNL1       -0.6615
      3 O          -1.2006    9.1904   -3.1170 O.co2   1  UNL1       -0.6615
      4 O          -2.0167    7.6719   -4.9179 O.co2   1  UNL1       -0.6615
      5 P          -4.2832   10.4018   -3.8913 P.3     1  UNL1        0.2491
      6 O          -3.1684   10.5791   -2.9140 O.co2   1  UNL1       -0.6337
      7 O          -5.5184    9.7056   -3.4397 O.co2   1  UNL1       -0.6337
      8 O          -2.8562   10.0030   -4.7639 O.3     1  UNL1       -0.0930
      9 O          -4.6831   11.8883   -4.4211 O.3     1  UNL1       -0.2057
     10 C          -4.9288   12.9418   -3.5105 C.3     1  UNL1        0.1232
     11 C          -6.2487   12.6238   -2.8715 C.3     1  UNL1        0.1214
     12 O          -5.9759   12.4630   -1.4755 O.3     1  UNL1       -0.3453
     13 C          -7.2812   13.7775   -2.9946 C.3     1  UNL1        0.1593
     14 O          -8.6223   13.2175   -3.0929 O.3     1  UNL1       -0.2421
     15 P          -9.0624   12.2293   -4.4144 P.3     1  UNL1       -0.0004
     16 O         -10.4469   12.7029   -4.6622 O.co2   1  UNL1       -0.6646
     17 O          -8.0689   12.6129   -5.4495 O.co2   1  UNL1       -0.6646
     18 O          -8.9033   10.8171   -3.9516 O.co2   1  UNL1       -0.6646
     19 C          -7.0754   14.4945   -1.6658 C.3     1  UNL1        0.1329
     20 O          -8.2277   15.2988   -1.3295 O.3     1  UNL1       -0.3845
     21 C          -6.9669   13.2231   -0.8011 C.3     1  UNL1        0.1668
     22 N          -6.4297   13.3915    0.5679 N.ar    1  UNL1       -0.2855
     23 C          -7.1764   13.1429    1.6923 C.ar    1  UNL1        0.1004
     24 N          -6.5434   13.3549    2.8080 N.ar    1  UNL1       -0.2306
     25 C          -5.2383   13.7902    2.4124 C.ar    1  UNL1        0.1473
     26 C          -4.0562   14.1683    3.1814 C.ar    1  UNL1        0.1472
     27 N          -4.0651   14.2567    4.5257 N.pl3   1  UNL1       -0.3413
     28 N          -2.9410   14.5071    2.4822 N.ar    1  UNL1       -0.2188
     29 C          -3.0108   14.4916    1.1430 C.ar    1  UNL1        0.1205
     30 N          -4.0308   14.1770    0.3081 N.ar    1  UNL1       -0.2159
     31 C          -5.1540   13.8169    1.0246 C.ar    1  UNL1        0.1674
     32 H          -4.2062   13.2530   -2.7561 H       1  UNL1        0.0631
     33 H          -5.0530   13.7266   -4.2566 H       1  UNL1        0.0631
     34 H          -6.6586   11.7028   -3.2861 H       1  UNL1        0.0650
     35 H          -7.0560   14.4281   -3.8397 H       1  UNL1        0.0694
     36 H          -6.1424   15.0421   -1.5334 H       1  UNL1        0.0667
     37 H          -7.9164   12.6880   -0.7802 H       1  UNL1        0.0866
     38 H          -8.2002   12.8010    1.6537 H       1  UNL1        0.1030
     39 H          -2.0972   14.7795    0.6443 H       1  UNL1        0.1048
     40 H          -4.0723   13.4171    5.0871 H       1  UNL1        0.1438
     41 H          -4.0647   15.1626    4.9722 H       1  UNL1        0.1438
     42 H          -8.3717   15.2713   -0.3807 H       1  UNL1        0.2101
@<TRIPOS>BOND
     1     1     2    1
     2     1     3    1
     3     1     4    1
     4     1     8    1
     5     5     6    1
     6     5     7    1
     7     5     8    1
     8     5     9    1
     9     9    10    1
    10    10    11    1
    11    11    12    1
    12    11    13    1
    13    12    21    1
    14    13    14    1
    15    13    19    1
    16    14    15    1
    17    15    16    1
    18    15    17    1
    19    15    18    1
    20    19    20    1
    21    19    21    1
    22    21    22    1
    23    22    23   ar
    24    22    31   ar
    25    23    24   ar
    26    24    25   ar
    27    25    26   ar
    28    25    31   ar
    29    26    27    1
    30    26    28   ar
    31    28    29   ar
    32    29    30   ar
    33    30    31   ar
    34    32    10    1
    35    33    10    1
    36    11    34    1
    37    13    35    1
    38    19    36    1
    39    21    37    1
    40    38    23    1
    41    39    29    1
    42    40    27    1
    43    41    27    1
    44    42    20    1
@<TRIPOS>SUBSTRUCTURE
     1 UNL1        1 TEMP              0 ****  ****    0 ROOT

########## Name:	17	2252.98  0.311859
@<TRIPOS>MOLECULE
af2_protein.mol217	
 42 44 1 0 0
SMALL
GASTEIGER


@<TRIPOS>ATOM
      1 P          -2.8114    8.0030   -3.1193 P.3     1  UNL1        0.0544
      2 O          -1.4543    7.9558   -3.7000 O.co2   1  UNL1       -0.6615
      3 O          -2.8570    8.3559   -1.6597 O.co2   1  UNL1       -0.6615
      4 O          -3.6508    6.8327   -3.4667 O.co2   1  UNL1       -0.6615
      5 P          -4.8157   10.3909   -3.4926 P.3     1  UNL1        0.2491
      6 O          -4.1371   10.5610   -2.1736 O.co2   1  UNL1       -0.6337
      7 O          -6.2891   10.1834   -3.5108 O.co2   1  UNL1       -0.6337
      8 O          -3.5478    9.2840   -3.8449 O.3     1  UNL1       -0.0930
      9 O          -4.4613   11.7115   -4.3762 O.3     1  UNL1       -0.2057
     10 C          -4.6379   13.0097   -3.8442 C.3     1  UNL1        0.1232
     11 C          -6.0036   13.0090   -3.2224 C.3     1  UNL1        0.1214
     12 O          -5.7929   12.8009   -1.8219 O.3     1  UNL1       -0.3453
     13 C          -6.7411   14.3684   -3.3658 C.3     1  UNL1        0.1593
     14 O          -8.1738   14.1312   -3.4803 O.3     1  UNL1       -0.2421
     15 P          -8.8260   13.3696   -4.8628 P.3     1  UNL1       -0.0004
     16 O          -9.9843   14.2541   -5.1427 O.co2   1  UNL1       -0.6646
     17 O          -7.7104   13.4616   -5.8389 O.co2   1  UNL1       -0.6646
     18 O          -9.1310   11.9629   -4.4603 O.co2   1  UNL1       -0.6646
     19 C          -6.3927   15.0293   -2.0376 C.3     1  UNL1        0.1329
     20 O          -7.3331   16.0799   -1.7216 O.3     1  UNL1       -0.3845
     21 C          -6.5908   13.7739   -1.1653 C.3     1  UNL1        0.1668
     22 N          -6.0466   13.8251    0.2103 N.ar    1  UNL1       -0.2855
     23 C          -6.8049   13.5382    1.3178 C.ar    1  UNL1        0.1004
     24 N          -6.1629   13.6451    2.4433 N.ar    1  UNL1       -0.2306
     25 C          -4.8384   14.0430    2.0739 C.ar    1  UNL1        0.1473
     26 C          -3.6398   14.3123    2.8630 C.ar    1  UNL1        0.1472
     27 N          -3.6450   14.3114    4.2102 N.pl3   1  UNL1       -0.3413
     28 N          -2.5094   14.6431    2.1848 N.ar    1  UNL1       -0.2188
     29 C          -2.5794   14.7201    0.8477 C.ar    1  UNL1        0.1205
     30 N          -3.6128   14.5107   -0.0034 N.ar    1  UNL1       -0.2159
     31 C          -4.7523   14.1579    0.6907 C.ar    1  UNL1        0.1674
     32 H          -3.8727   13.1522   -3.0810 H       1  UNL1        0.0631
     33 H          -4.5686   13.7960   -4.5957 H       1  UNL1        0.0631
     34 H          -6.6091   12.2037   -3.6384 H       1  UNL1        0.0650
     35 H          -6.3770   15.0144   -4.1646 H       1  UNL1        0.0694
     36 H          -5.3741   15.4065   -2.1279 H       1  UNL1        0.0667
     37 H          -7.5647   13.2847   -1.1774 H       1  UNL1        0.0866
     38 H          -7.8438   13.2489    1.2594 H       1  UNL1        0.1030
     39 H          -1.6528   14.9966    0.3667 H       1  UNL1        0.1048
     40 H          -3.6925   13.4377    4.7147 H       1  UNL1        0.1438
     41 H          -3.6014   15.1846    4.7159 H       1  UNL1        0.1438
     42 H          -7.3310   16.2374   -0.7746 H       1  UNL1        0.2101
@<TRIPOS>BOND
     1     1     2    1
     2     1     3    1
     3     1     4    1
     4     1     8    1
     5     5     6    1
     6     5     7    1
     7     5     8    1
     8     5     9    1
     9     9    10    1
    10    10    11    1
    11    11    12    1
    12    11    13    1
    13    12    21    1
    14    13    14    1
    15    13    19    1
    16    14    15    1
    17    15    16    1
    18    15    17    1
    19    15    18    1
    20    19    20    1
    21    19    21    1
    22    21    22    1
    23    22    23   ar
    24    22    31   ar
    25    23    24   ar
    26    24    25   ar
    27    25    26   ar
    28    25    31   ar
    29    26    27    1
    30    26    28   ar
    31    28    29   ar
    32    29    30   ar
    33    30    31   ar
    34    32    10    1
    35    33    10    1
    36    11    34    1
    37    13    35    1
    38    19    36    1
    39    21    37    1
    40    38    23    1
    41    39    29    1
    42    40    27    1
    43    41    27    1
    44    42    20    1
@<TRIPOS>SUBSTRUCTURE
     1 UNL1        1 TEMP              0 ****  ****    0 ROOT

########## Name:	18	2280.05  0.334857
@<TRIPOS>MOLECULE
af2_protein.mol218	
 42 44 1 0 0
SMALL
GASTEIGER


@<TRIPOS>ATOM
      1 P          -2.6325    7.7537   -3.6868 P.3     1  UNL1        0.0544
      2 O          -1.4529    7.8588   -4.5691 O.co2   1  UNL1       -0.6615
      3 O          -2.3944    8.1843   -2.2674 O.co2   1  UNL1       -0.6615
      4 O          -3.3467    6.4603   -3.7959 O.co2   1  UNL1       -0.6615
      5 P          -4.9649    9.8550   -3.6295 P.3     1  UNL1        0.2491
      6 O          -3.9582   10.1785   -2.5754 O.co2   1  UNL1       -0.6337
      7 O          -6.2650    9.2641   -3.2112 O.co2   1  UNL1       -0.6337
      8 O          -3.6966    8.8752   -4.2525 O.3     1  UNL1       -0.0930
      9 O          -4.7415   11.3066   -4.3319 O.3     1  UNL1       -0.2057
     10 C          -4.8818   12.5016   -3.5894 C.3     1  UNL1        0.1232
     11 C          -6.3093   12.5248   -3.1274 C.3     1  UNL1        0.1214
     12 O          -6.2567   12.4495   -1.6989 O.3     1  UNL1       -0.3453
     13 C          -7.0438   13.8477   -3.4779 C.3     1  UNL1        0.1593
     14 O          -8.4508   13.5671   -3.7299 O.3     1  UNL1       -0.2421
     15 P          -8.9198   12.5064   -4.9836 P.3     1  UNL1       -0.0004
     16 O         -10.2534   13.0597   -5.3267 O.co2   1  UNL1       -0.6646
     17 O          -7.8634   12.7255   -6.0042 O.co2   1  UNL1       -0.6646
     18 O          -8.8879   11.1305   -4.4008 O.co2   1  UNL1       -0.6646
     19 C          -6.8578   14.6343   -2.1860 C.3     1  UNL1        0.1329
     20 O          -7.8420   15.6865   -2.0762 O.3     1  UNL1       -0.3845
     21 C          -7.1371   13.4587   -1.2289 C.3     1  UNL1        0.1668
     22 N          -6.7539   13.6472    0.1884 N.ar    1  UNL1       -0.2855
     23 C          -7.6733   13.6733    1.2071 C.ar    1  UNL1        0.1004
     24 N          -7.1558   13.8589    2.3852 N.ar    1  UNL1       -0.2306
     25 C          -5.7476   13.9709    2.1538 C.ar    1  UNL1        0.1473
     26 C          -4.6184   14.1690    3.0580 C.ar    1  UNL1        0.1472
     27 N          -4.7779   14.3910    4.3772 N.pl3   1  UNL1       -0.3413
     28 N          -3.3766   14.1963    2.5063 N.ar    1  UNL1       -0.2188
     29 C          -3.2778   14.0621    1.1755 C.ar    1  UNL1        0.1205
     30 N          -4.2278   13.8853    0.2254 N.ar    1  UNL1       -0.2159
     31 C          -5.4842   13.8407    0.7946 C.ar    1  UNL1        0.1674
     32 H          -4.2105   12.7309   -2.7617 H       1  UNL1        0.0631
     33 H          -4.7379   13.2181   -4.3980 H       1  UNL1        0.0631
     34 H          -6.8527   11.6710   -3.5321 H       1  UNL1        0.0650
     35 H          -6.5655   14.3059   -4.3435 H       1  UNL1        0.0694
     36 H          -5.8699   14.9639   -1.8645 H       1  UNL1        0.0667
     37 H          -8.1759   13.1382   -1.3087 H       1  UNL1        0.0866
     38 H          -8.7339   13.5502    1.0442 H       1  UNL1        0.1030
     39 H          -2.2676   14.1020    0.7959 H       1  UNL1        0.1048
     40 H          -5.0409   13.6318    4.9891 H       1  UNL1        0.1438
     41 H          -4.6346   15.3169    4.7544 H       1  UNL1        0.1438
     42 H          -8.1718   15.7238   -1.1754 H       1  UNL1        0.2101
@<TRIPOS>BOND
     1     1     2    1
     2     1     3    1
     3     1     4    1
     4     1     8    1
     5     5     6    1
     6     5     7    1
     7     5     8    1
     8     5     9    1
     9     9    10    1
    10    10    11    1
    11    11    12    1
    12    11    13    1
    13    12    21    1
    14    13    14    1
    15    13    19    1
    16    14    15    1
    17    15    16    1
    18    15    17    1
    19    15    18    1
    20    19    20    1
    21    19    21    1
    22    21    22    1
    23    22    23   ar
    24    22    31   ar
    25    23    24   ar
    26    24    25   ar
    27    25    26   ar
    28    25    31   ar
    29    26    27    1
    30    26    28   ar
    31    28    29   ar
    32    29    30   ar
    33    30    31   ar
    34    32    10    1
    35    33    10    1
    36    11    34    1
    37    13    35    1
    38    19    36    1
    39    21    37    1
    40    38    23    1
    41    39    29    1
    42    40    27    1
    43    41    27    1
    44    42    20    1
@<TRIPOS>SUBSTRUCTURE
     1 UNL1        1 TEMP              0 ****  ****    0 ROOT

########## Name:	19	2329.12  0.302489
@<TRIPOS>MOLECULE
af2_protein.mol219	
 42 44 1 0 0
SMALL
GASTEIGER


@<TRIPOS>ATOM
      1 P          -1.5491    9.8065   -3.5249 P.3     1  UNL1        0.0544
      2 O          -1.0179    9.3257   -2.2335 O.co2   1  UNL1       -0.6615
      3 O          -2.5779    8.9096   -4.1528 O.co2   1  UNL1       -0.6615
      4 O          -0.5016   10.2519   -4.4731 O.co2   1  UNL1       -0.6615
      5 P          -3.1445   12.4674   -4.0076 P.3     1  UNL1        0.2491
      6 O          -3.8651   11.5835   -4.9713 O.co2   1  UNL1       -0.6337
      7 O          -2.4517   13.6746   -4.5340 O.co2   1  UNL1       -0.6337
      8 O          -2.4002   11.1681   -3.1622 O.3     1  UNL1       -0.0930
      9 O          -4.1884   13.1073   -2.9346 O.3     1  UNL1       -0.2057
     10 C          -5.4112   13.6746   -3.3613 C.3     1  UNL1        0.1232
     11 C          -6.4852   12.7963   -2.7896 C.3     1  UNL1        0.1214
     12 O          -6.1096   12.5588   -1.4288 O.3     1  UNL1       -0.3453
     13 C          -7.8796   13.4796   -2.7550 C.3     1  UNL1        0.1593
     14 O          -8.9155   12.4738   -2.9481 O.3     1  UNL1       -0.2421
     15 P          -9.0960   11.6818   -4.4504 P.3     1  UNL1       -0.0004
     16 O         -10.5619   11.8005   -4.6489 O.co2   1  UNL1       -0.6646
     17 O          -8.2663   12.5158   -5.3569 O.co2   1  UNL1       -0.6646
     18 O          -8.5479   10.3038   -4.2650 O.co2   1  UNL1       -0.6646
     19 C          -7.8985   14.0296   -1.3340 C.3     1  UNL1        0.1329
     20 O          -9.2520   14.2840   -0.8970 O.3     1  UNL1       -0.3845
     21 C          -7.2820   12.7868   -0.6620 C.3     1  UNL1        0.1668
     22 N          -6.7863   12.9544    0.7227 N.ar    1  UNL1       -0.2855
     23 C          -7.3829   12.3504    1.8011 C.ar    1  UNL1        0.1004
     24 N          -6.8176   12.6193    2.9406 N.ar    1  UNL1       -0.2306
     25 C          -5.7296   13.4903    2.6139 C.ar    1  UNL1        0.1473
     26 C          -4.7063   14.1309    3.4350 C.ar    1  UNL1        0.1472
     27 N          -4.7037   14.0525    4.7799 N.pl3   1  UNL1       -0.3413
     28 N          -3.7765   14.8866    2.7933 N.ar    1  UNL1       -0.2188
     29 C          -3.8766   15.0080    1.4615 C.ar    1  UNL1        0.1205
     30 N          -4.7682   14.4865    0.5843 N.ar    1  UNL1       -0.2159
     31 C          -5.6983   13.7061    1.2405 C.ar    1  UNL1        0.1674
     32 H          -4.8251   14.1280   -2.5618 H       1  UNL1        0.0631
     33 H          -5.8543   14.4495   -3.9868 H       1  UNL1        0.0631
     34 H          -6.5376   11.8557   -3.3379 H       1  UNL1        0.0650
     35 H          -8.0087   14.3228   -3.4335 H       1  UNL1        0.0694
     36 H          -7.2630   14.9087   -1.2280 H       1  UNL1        0.0667
     37 H          -8.0121   11.9793   -0.7157 H       1  UNL1        0.0866
     38 H          -8.2464   11.7079    1.7109 H       1  UNL1        0.1030
     39 H          -3.1160   15.6282    1.0106 H       1  UNL1        0.1048
     40 H          -4.4284   13.1941    5.2354 H       1  UNL1        0.1438
     41 H          -4.9773   14.8522    5.3329 H       1  UNL1        0.1438
     42 H          -9.3057   14.1808    0.0560 H       1  UNL1        0.2101
@<TRIPOS>BOND
     1     1     2    1
     2     1     3    1
     3     1     4    1
     4     1     8    1
     5     5     6    1
     6     5     7    1
     7     5     8    1
     8     5     9    1
     9     9    10    1
    10    10    11    1
    11    11    12    1
    12    11    13    1
    13    12    21    1
    14    13    14    1
    15    13    19    1
    16    14    15    1
    17    15    16    1
    18    15    17    1
    19    15    18    1
    20    19    20    1
    21    19    21    1
    22    21    22    1
    23    22    23   ar
    24    22    31   ar
    25    23    24   ar
    26    24    25   ar
    27    25    26   ar
    28    25    31   ar
    29    26    27    1
    30    26    28   ar
    31    28    29   ar
    32    29    30   ar
    33    30    31   ar
    34    32    10    1
    35    33    10    1
    36    11    34    1
    37    13    35    1
    38    19    36    1
    39    21    37    1
    40    38    23    1
    41    39    29    1
    42    40    27    1
    43    41    27    1
    44    42    20    1
@<TRIPOS>SUBSTRUCTURE
     1 UNL1        1 TEMP              0 ****  ****    0 ROOT

########## Name:	0	2720.82  0.315928
@<TRIPOS>MOLECULE
af2_protein.mol20	
 42 44 1 0 0
SMALL
GASTEIGER


@<TRIPOS>ATOM
      1 P         -11.5158   17.6066    0.0852 P.3     1  UNL1        0.0544
      2 O         -12.9216   17.3478    0.4565 O.co2   1  UNL1       -0.6615
      3 O         -10.5849   17.7980    1.2488 O.co2   1  UNL1       -0.6615
      4 O         -11.3561   18.6347   -0.9695 O.co2   1  UNL1       -0.6615
      5 P          -9.4814   15.4521   -0.9532 P.3     1  UNL1        0.2491
      6 O          -8.6711   15.6861    0.2788 O.co2   1  UNL1       -0.6337
      7 O          -8.9075   15.8525   -2.2664 O.co2   1  UNL1       -0.6337
      8 O         -10.9856   16.2077   -0.6017 O.3     1  UNL1       -0.0930
      9 O          -9.8241   13.8611   -0.9939 O.3     1  UNL1       -0.2057
     10 C          -8.8052   12.8946   -0.8289 C.3     1  UNL1        0.1232
     11 C          -7.7898   13.1925   -1.8929 C.3     1  UNL1        0.1214
     12 O          -6.7138   13.8617   -1.2268 O.3     1  UNL1       -0.3453
     13 C          -7.1888   11.9145   -2.5392 C.3     1  UNL1        0.1593
     14 O          -6.8740   12.1818   -3.9362 O.3     1  UNL1       -0.2421
     15 P          -8.1071   12.5747   -5.0505 P.3     1  UNL1       -0.0004
     16 O          -7.7699   11.6578   -6.1677 O.co2   1  UNL1       -0.6646
     17 O          -9.3418   12.2297   -4.3009 O.co2   1  UNL1       -0.6646
     18 O          -7.9791   14.0400   -5.3160 O.co2   1  UNL1       -0.6646
     19 C          -5.9230   11.7371   -1.7095 C.3     1  UNL1        0.1329
     20 O          -4.9580   10.9198   -2.4085 O.3     1  UNL1       -0.3845
     21 C          -5.5281   13.2268   -1.6803 C.3     1  UNL1        0.1668
     22 N          -4.4997   13.6249   -0.6928 N.ar    1  UNL1       -0.2855
     23 C          -3.2721   14.1171   -1.0594 C.ar    1  UNL1        0.1004
     24 N          -2.4941   14.4040   -0.0581 N.ar    1  UNL1       -0.2306
     25 C          -3.2599   14.0780    1.1066 C.ar    1  UNL1        0.1473
     26 C          -2.9668   14.1821    2.5332 C.ar    1  UNL1        0.1472
     27 N          -1.7594   14.5571    2.9985 N.pl3   1  UNL1       -0.3413
     28 N          -3.9470   13.8112    3.3986 N.ar    1  UNL1       -0.2188
     29 C          -5.0997   13.3576    2.8847 C.ar    1  UNL1        0.1205
     30 N          -5.5003   13.1987    1.5999 N.ar    1  UNL1       -0.2159
     31 C          -4.5071   13.5939    0.7271 C.ar    1  UNL1        0.1674
     32 H          -8.3558   12.9811    0.1604 H       1  UNL1        0.0631
     33 H          -9.2124   11.8934   -0.9693 H       1  UNL1        0.0631
     34 H          -8.2210   13.8375   -2.6586 H       1  UNL1        0.0650
     35 H          -7.8583   11.0607   -2.4359 H       1  UNL1        0.0694
     36 H          -6.1387   11.3521   -0.7129 H       1  UNL1        0.0667
     37 H          -5.2608   13.5751   -2.6779 H       1  UNL1        0.0866
     38 H          -2.9782   14.2542   -2.0897 H       1  UNL1        0.1030
     39 H          -5.8349   13.0695    3.6214 H       1  UNL1        0.1048
     40 H          -1.4751   15.5247    2.9436 H       1  UNL1        0.1438
     41 H          -1.1383   13.8706    3.4021 H       1  UNL1        0.1438
     42 H          -4.0711   11.1733   -2.1426 H       1  UNL1        0.2101
@<TRIPOS>BOND
     1     1     2    1
     2     1     3    1
     3     1     4    1
     4     1     8    1
     5     5     6    1
     6     5     7    1
     7     5     8    1
     8     5     9    1
     9     9    10    1
    10    10    11    1
    11    11    12    1
    12    11    13    1
    13    12    21    1
    14    13    14    1
    15    13    19    1
    16    14    15    1
    17    15    16    1
    18    15    17    1
    19    15    18    1
    20    19    20    1
    21    19    21    1
    22    21    22    1
    23    22    23   ar
    24    22    31   ar
    25    23    24   ar
    26    24    25   ar
    27    25    26   ar
    28    25    31   ar
    29    26    27    1
    30    26    28   ar
    31    28    29   ar
    32    29    30   ar
    33    30    31   ar
    34    32    10    1
    35    33    10    1
    36    11    34    1
    37    13    35    1
    38    19    36    1
    39    21    37    1
    40    38    23    1
    41    39    29    1
    42    40    27    1
    43    41    27    1
    44    42    20    1
@<TRIPOS>SUBSTRUCTURE
     1 UNL1        1 TEMP              0 ****  ****    0 ROOT

########## Name:	1	2406.69  0.33226
@<TRIPOS>MOLECULE
af2_protein.mol21	
 42 44 1 0 0
SMALL
GASTEIGER


@<TRIPOS>ATOM
      1 P          -2.0023   10.1778   -5.3816 P.3     1  UNL1        0.0544
      2 O          -1.5230   10.5473   -6.7287 O.co2   1  UNL1       -0.6615
      3 O          -1.0775   10.5589   -4.2606 O.co2   1  UNL1       -0.6615
      4 O          -2.4987    8.7853   -5.2853 O.co2   1  UNL1       -0.6615
      5 P          -4.2585   11.6638   -3.7816 P.3     1  UNL1        0.2491
      6 O          -3.2318   12.0356   -2.7634 O.co2   1  UNL1       -0.6337
      7 O          -5.3397   10.7205   -3.3871 O.co2   1  UNL1       -0.6337
      8 O          -3.3268   11.1198   -5.1206 O.3     1  UNL1       -0.0930
      9 O          -4.9358   13.0529   -4.2936 O.3     1  UNL1       -0.2057
     10 C          -5.4163   14.0098   -3.3700 C.3     1  UNL1        0.1232
     11 C          -6.4095   13.2809   -2.5132 C.3     1  UNL1        0.1214
     12 O          -5.7354   13.0130   -1.2791 O.3     1  UNL1       -0.3453
     13 C          -7.6583   14.1354   -2.1634 C.3     1  UNL1        0.1593
     14 O          -8.8222   13.2667   -2.0508 O.3     1  UNL1       -0.2421
     15 P          -9.3863   12.3819   -3.3983 P.3     1  UNL1       -0.0004
     16 O         -10.8360   12.6947   -3.3447 O.co2   1  UNL1       -0.6646
     17 O          -8.6471   13.0045   -4.5259 O.co2   1  UNL1       -0.6646
     18 O          -8.9918   10.9602   -3.1596 O.co2   1  UNL1       -0.6646
     19 C          -7.2538   14.6993   -0.8067 C.3     1  UNL1        0.1329
     20 O          -8.4136   15.1279   -0.0592 O.3     1  UNL1       -0.3845
     21 C          -6.6416   13.3961   -0.2561 C.3     1  UNL1        0.1668
     22 N          -5.7977   13.5151    0.9542 N.ar    1  UNL1       -0.2855
     23 C          -6.1350   12.9363    2.1521 C.ar    1  UNL1        0.1004
     24 N          -5.2804   13.1551    3.1071 N.ar    1  UNL1       -0.2306
     25 C          -4.2594   13.9603    2.5084 C.ar    1  UNL1        0.1473
     26 C          -3.0210   14.5253    3.0366 C.ar    1  UNL1        0.1472
     27 N          -2.6786   14.4302    4.3361 N.pl3   1  UNL1       -0.3413
     28 N          -2.2408   15.2292    2.1747 N.ar    1  UNL1       -0.2188
     29 C          -2.6712   15.3732    0.9127 C.ar    1  UNL1        0.1205
     30 N          -3.7893   14.9194    0.2960 N.ar    1  UNL1       -0.2159
     31 C          -4.5677   14.1908    1.1721 C.ar    1  UNL1        0.1674
     32 H          -4.5983   14.3942   -2.7607 H       1  UNL1        0.0631
     33 H          -5.9061   14.8274   -3.8986 H       1  UNL1        0.0631
     34 H          -6.7101   12.3484   -2.9910 H       1  UNL1        0.0650
     35 H          -7.8191   14.9277   -2.8945 H       1  UNL1        0.0694
     36 H          -6.5115   15.4921   -0.8990 H       1  UNL1        0.0667
     37 H          -7.4110   12.6366   -0.1173 H       1  UNL1        0.0866
     38 H          -7.0319   12.3503    2.2893 H       1  UNL1        0.1030
     39 H          -2.0138   15.9500    0.2792 H       1  UNL1        0.1048
     40 H          -2.3510   13.5506    4.7091 H       1  UNL1        0.1438
     41 H          -2.7497   15.2385    4.9375 H       1  UNL1        0.1438
     42 H          -8.2383   15.0429    0.8808 H       1  UNL1        0.2101
@<TRIPOS>BOND
     1     1     2    1
     2     1     3    1
     3     1     4    1
     4     1     8    1
     5     5     6    1
     6     5     7    1
     7     5     8    1
     8     5     9    1
     9     9    10    1
    10    10    11    1
    11    11    12    1
    12    11    13    1
    13    12    21    1
    14    13    14    1
    15    13    19    1
    16    14    15    1
    17    15    16    1
    18    15    17    1
    19    15    18    1
    20    19    20    1
    21    19    21    1
    22    21    22    1
    23    22    23   ar
    24    22    31   ar
    25    23    24   ar
    26    24    25   ar
    27    25    26   ar
    28    25    31   ar
    29    26    27    1
    30    26    28   ar
    31    28    29   ar
    32    29    30   ar
    33    30    31   ar
    34    32    10    1
    35    33    10    1
    36    11    34    1
    37    13    35    1
    38    19    36    1
    39    21    37    1
    40    38    23    1
    41    39    29    1
    42    40    27    1
    43    41    27    1
    44    42    20    1
@<TRIPOS>SUBSTRUCTURE
     1 UNL1        1 TEMP              0 ****  ****    0 ROOT

########## Name:	2	2746.85  0.323898
@<TRIPOS>MOLECULE
af2_protein.mol22	
 42 44 1 0 0
SMALL
GASTEIGER


@<TRIPOS>ATOM
      1 P          -1.6675    9.7406   -4.3986 P.3     1  UNL1        0.0544
      2 O          -1.3781    8.3207   -4.1141 O.co2   1  UNL1       -0.6615
      3 O          -2.1223   10.0188   -5.8032 O.co2   1  UNL1       -0.6615
      4 O          -0.6150   10.6707   -3.9275 O.co2   1  UNL1       -0.6615
      5 P          -4.2238   11.3014   -3.4562 P.3     1  UNL1        0.2491
      6 O          -4.6038   11.4591   -4.8914 O.co2   1  UNL1       -0.6337
      7 O          -3.8496   12.5169   -2.6838 O.co2   1  UNL1       -0.6337
      8 O          -2.9915   10.1025   -3.4899 O.3     1  UNL1       -0.0930
      9 O          -5.4789   10.5754   -2.7159 O.3     1  UNL1       -0.2057
     10 C          -6.7961   11.0650   -2.8726 C.3     1  UNL1        0.1232
     11 C          -6.7483   12.4999   -2.4361 C.3     1  UNL1        0.1214
     12 O          -6.7425   13.2726   -3.6411 O.3     1  UNL1       -0.3453
     13 C          -8.0034   12.9363   -1.6320 C.3     1  UNL1        0.1593
     14 O          -7.6212   13.9375   -0.6454 O.3     1  UNL1       -0.2421
     15 P          -6.5318   13.5538    0.6127 P.3     1  UNL1       -0.0004
     16 O          -7.2624   14.0984    1.7840 O.co2   1  UNL1       -0.6646
     17 O          -6.4662   12.0718    0.5424 O.co2   1  UNL1       -0.6646
     18 O          -5.2365   14.2100    0.2586 O.co2   1  UNL1       -0.6646
     19 C          -8.8591   13.5444   -2.7366 C.3     1  UNL1        0.1329
     20 O          -9.8495   14.4418   -2.1873 O.3     1  UNL1       -0.3845
     21 C          -7.7134   14.2900   -3.4489 C.3     1  UNL1        0.1668
     22 N          -7.9914   14.7924   -4.8133 N.ar    1  UNL1       -0.2855
     23 C          -8.0001   16.1296   -5.1226 C.ar    1  UNL1        0.1004
     24 N          -8.2737   16.3850   -6.3677 N.ar    1  UNL1       -0.2306
     25 C          -8.4716   15.1018   -6.9706 C.ar    1  UNL1        0.1473
     26 C          -8.7874   14.6996   -8.3382 C.ar    1  UNL1        0.1472
     27 N          -9.0571   15.5918   -9.3110 N.pl3   1  UNL1       -0.3413
     28 N          -8.8750   13.3670   -8.5904 N.ar    1  UNL1       -0.2188
     29 C          -8.6882   12.5207   -7.5670 C.ar    1  UNL1        0.1205
     30 N          -8.4039   12.7504   -6.2621 N.ar    1  UNL1       -0.2159
     31 C          -8.2988   14.1044   -6.0171 C.ar    1  UNL1        0.1674
     32 H          -7.1062   10.9948   -3.9153 H       1  UNL1        0.0631
     33 H          -7.4823   10.5032   -2.2390 H       1  UNL1        0.0631
     34 H          -5.8434   12.6907   -1.8592 H       1  UNL1        0.0650
     35 H          -8.4973   12.0835   -1.1665 H       1  UNL1        0.0694
     36 H          -9.3075   12.7813   -3.3726 H       1  UNL1        0.0667
     37 H          -7.3190   15.0859   -2.8172 H       1  UNL1        0.0866
     38 H          -7.7972   16.9019   -4.3954 H       1  UNL1        0.1030
     39 H          -8.7802   11.4767   -7.8277 H       1  UNL1        0.1048
     40 H          -8.3099   16.1341   -9.7204 H       1  UNL1        0.1438
     41 H         -10.0067   15.7184   -9.6308 H       1  UNL1        0.1438
     42 H         -10.0519   15.1268   -2.8288 H       1  UNL1        0.2101
@<TRIPOS>BOND
     1     1     2    1
     2     1     3    1
     3     1     4    1
     4     1     8    1
     5     5     6    1
     6     5     7    1
     7     5     8    1
     8     5     9    1
     9     9    10    1
    10    10    11    1
    11    11    12    1
    12    11    13    1
    13    12    21    1
    14    13    14    1
    15    13    19    1
    16    14    15    1
    17    15    16    1
    18    15    17    1
    19    15    18    1
    20    19    20    1
    21    19    21    1
    22    21    22    1
    23    22    23   ar
    24    22    31   ar
    25    23    24   ar
    26    24    25   ar
    27    25    26   ar
    28    25    31   ar
    29    26    27    1
    30    26    28   ar
    31    28    29   ar
    32    29    30   ar
    33    30    31   ar
    34    32    10    1
    35    33    10    1
    36    11    34    1
    37    13    35    1
    38    19    36    1
    39    21    37    1
    40    38    23    1
    41    39    29    1
    42    40    27    1
    43    41    27    1
    44    42    20    1
@<TRIPOS>SUBSTRUCTURE
     1 UNL1        1 TEMP              0 ****  ****    0 ROOT

########## Name:	3	2278.29  0.336365
@<TRIPOS>MOLECULE
af2_protein.mol23	
 42 44 1 0 0
SMALL
GASTEIGER


@<TRIPOS>ATOM
      1 P          -4.9569   14.2002    4.4708 P.3     1  UNL1        0.0544
      2 O          -5.8991   14.0309    5.5954 O.co2   1  UNL1       -0.6615
      3 O          -4.0950   13.0024    4.1891 O.co2   1  UNL1       -0.6615
      4 O          -4.1984   15.4721    4.5132 O.co2   1  UNL1       -0.6615
      5 P          -5.7253   14.1349    1.4271 P.3     1  UNL1        0.2491
      6 O          -4.8858   12.9083    1.2859 O.co2   1  UNL1       -0.6337
      7 O          -5.2841   15.3793    0.7408 O.co2   1  UNL1       -0.6337
      8 O          -5.9024   14.3143    3.1281 O.3     1  UNL1       -0.0930
      9 O          -7.2160   13.7461    0.9007 O.3     1  UNL1       -0.2057
     10 C          -7.4016   13.1083   -0.3476 C.3     1  UNL1        0.1232
     11 C          -6.7562   14.0077   -1.3606 C.3     1  UNL1        0.1214
     12 O          -5.5032   13.3949   -1.6820 O.3     1  UNL1       -0.3453
     13 C          -7.5574   14.1082   -2.6873 C.3     1  UNL1        0.1593
     14 O          -7.3833   15.4372   -3.2577 O.3     1  UNL1       -0.2421
     15 P          -7.9330   16.8241   -2.4265 P.3     1  UNL1       -0.0004
     16 O          -8.6635   17.5235   -3.5126 O.co2   1  UNL1       -0.6646
     17 O          -8.7895   16.2438   -1.3610 O.co2   1  UNL1       -0.6646
     18 O          -6.7133   17.4995   -1.8878 O.co2   1  UNL1       -0.6646
     19 C          -6.8591   13.0473   -3.5294 C.3     1  UNL1        0.1329
     20 O          -7.0899   13.2721   -4.9379 O.3     1  UNL1       -0.3845
     21 C          -5.4231   13.4061   -3.0991 C.3     1  UNL1        0.1668
     22 N          -4.3663   12.4184   -3.4134 N.ar    1  UNL1       -0.2855
     23 C          -3.3341   12.6878   -4.2770 C.ar    1  UNL1        0.1004
     24 N          -2.5061   11.6987   -4.4401 N.ar    1  UNL1       -0.2306
     25 C          -3.0181   10.6509   -3.6099 C.ar    1  UNL1        0.1473
     26 C          -2.5443    9.2973   -3.3359 C.ar    1  UNL1        0.1472
     27 N          -1.4877    8.7574   -3.9740 N.pl3   1  UNL1       -0.3413
     28 N          -3.2604    8.5544   -2.4514 N.ar    1  UNL1       -0.2188
     29 C          -4.3577    9.1055   -1.9122 C.ar    1  UNL1        0.1205
     30 N          -4.9142   10.3295   -2.0810 N.ar    1  UNL1       -0.2159
     31 C          -4.1722   11.0845   -2.9665 C.ar    1  UNL1        0.1674
     32 H          -6.9230   12.1289   -0.3490 H       1  UNL1        0.0631
     33 H          -8.4655   13.0058   -0.5612 H       1  UNL1        0.0631
     34 H          -6.5956   15.0000   -0.9389 H       1  UNL1        0.0650
     35 H          -8.6108   13.8714   -2.5380 H       1  UNL1        0.0694
     36 H          -7.1361   12.0377   -3.2261 H       1  UNL1        0.0667
     37 H          -5.1470   14.3960   -3.4625 H       1  UNL1        0.0866
     38 H          -3.2196   13.6382   -4.7771 H       1  UNL1        0.1030
     39 H          -4.8892    8.4634   -1.2254 H       1  UNL1        0.1048
     40 H          -0.5509    9.0543   -3.7406 H       1  UNL1        0.1438
     41 H          -1.6323    8.0557   -4.6858 H       1  UNL1        0.1438
     42 H          -6.3435   12.9395   -5.4419 H       1  UNL1        0.2101
@<TRIPOS>BOND
     1     1     2    1
     2     1     3    1
     3     1     4    1
     4     1     8    1
     5     5     6    1
     6     5     7    1
     7     5     8    1
     8     5     9    1
     9     9    10    1
    10    10    11    1
    11    11    12    1
    12    11    13    1
    13    12    21    1
    14    13    14    1
    15    13    19    1
    16    14    15    1
    17    15    16    1
    18    15    17    1
    19    15    18    1
    20    19    20    1
    21    19    21    1
    22    21    22    1
    23    22    23   ar
    24    22    31   ar
    25    23    24   ar
    26    24    25   ar
    27    25    26   ar
    28    25    31   ar
    29    26    27    1
    30    26    28   ar
    31    28    29   ar
    32    29    30   ar
    33    30    31   ar
    34    32    10    1
    35    33    10    1
    36    11    34    1
    37    13    35    1
    38    19    36    1
    39    21    37    1
    40    38    23    1
    41    39    29    1
    42    40    27    1
    43    41    27    1
    44    42    20    1
@<TRIPOS>SUBSTRUCTURE
     1 UNL1        1 TEMP              0 ****  ****    0 ROOT

########## Name:	4	2354.17  0.323768
@<TRIPOS>MOLECULE
af2_protein.mol24	
 42 44 1 0 0
SMALL
GASTEIGER


@<TRIPOS>ATOM
      1 P          -2.9918    9.6357   -4.3242 P.3     1  UNL1        0.0544
      2 O          -3.1054    8.1688   -4.1955 O.co2   1  UNL1       -0.6615
      3 O          -3.7466   10.2239   -5.4823 O.co2   1  UNL1       -0.6615
      4 O          -1.6031   10.1394   -4.2120 O.co2   1  UNL1       -0.6615
      5 P          -4.4730   11.7405   -2.5257 P.3     1  UNL1        0.2491
      6 O          -5.2096   12.1969   -3.7415 O.co2   1  UNL1       -0.6337
      7 O          -3.5031   12.6741   -1.8917 O.co2   1  UNL1       -0.6337
      8 O          -3.7724   10.2466   -3.0099 O.3     1  UNL1       -0.0930
      9 O          -5.5977   11.3254   -1.4242 O.3     1  UNL1       -0.2057
     10 C          -6.6638   12.1996   -1.1104 C.3     1  UNL1        0.1232
     11 C          -6.0191   13.4829   -0.6753 C.3     1  UNL1        0.1214
     12 O          -6.1397   14.3752   -1.7881 O.3     1  UNL1       -0.3453
     13 C          -6.7466   14.1581    0.5193 C.3     1  UNL1        0.1593
     14 O          -5.7721   14.8576    1.3457 O.3     1  UNL1       -0.2421
     15 P          -4.5309   14.0015    2.1477 P.3     1  UNL1       -0.0004
     16 O          -4.6403   14.5739    3.5126 O.co2   1  UNL1       -0.6646
     17 O          -4.9752   12.5905    2.0170 O.co2   1  UNL1       -0.6646
     18 O          -3.2722   14.2863    1.3938 O.co2   1  UNL1       -0.6646
     19 C          -7.6584   15.1364   -0.2113 C.3     1  UNL1        0.1329
     20 O          -8.0797   16.2036    0.6670 O.3     1  UNL1       -0.3845
     21 C          -6.6162   15.5986   -1.2487 C.3     1  UNL1        0.1668
     22 N          -7.1278   16.3411   -2.4227 N.ar    1  UNL1       -0.2855
     23 C          -6.7983   17.6498   -2.6723 C.ar    1  UNL1        0.1004
     24 N          -7.3488   18.1413   -3.7427 N.ar    1  UNL1       -0.2306
     25 C          -8.1303   17.0685   -4.2790 C.ar    1  UNL1        0.1473
     26 C          -8.9702   16.9673   -5.4691 C.ar    1  UNL1        0.1472
     27 N          -9.2255   18.0227   -6.2666 N.pl3   1  UNL1       -0.3413
     28 N          -9.5597   15.7676   -5.7146 N.ar    1  UNL1       -0.2188
     29 C          -9.3477   14.7732   -4.8400 C.ar    1  UNL1        0.1205
     30 N          -8.6115   14.7291   -3.7031 N.ar    1  UNL1       -0.2159
     31 C          -8.0017   15.9450   -3.4697 C.ar    1  UNL1        0.1674
     32 H          -7.2892   12.3666   -1.9874 H       1  UNL1        0.0631
     33 H          -7.2607   11.7858   -0.2978 H       1  UNL1        0.0631
     34 H          -4.9689   13.3170   -0.4346 H       1  UNL1        0.0650
     35 H          -7.3188   13.4349    1.1003 H       1  UNL1        0.0694
     36 H          -8.5051   14.6340   -0.6789 H       1  UNL1        0.0667
     37 H          -5.8084   16.1486   -0.7659 H       1  UNL1        0.0866
     38 H          -6.1393   18.2213   -2.0354 H       1  UNL1        0.1030
     39 H          -9.8500   13.8487   -5.0836 H       1  UNL1        0.1048
     40 H          -8.5104   18.3697   -6.8897 H       1  UNL1        0.1438
     41 H         -10.1321   18.4670   -6.2413 H       1  UNL1        0.1438
     42 H          -8.2387   16.9982    0.1522 H       1  UNL1        0.2101
@<TRIPOS>BOND
     1     1     2    1
     2     1     3    1
     3     1     4    1
     4     1     8    1
     5     5     6    1
     6     5     7    1
     7     5     8    1
     8     5     9    1
     9     9    10    1
    10    10    11    1
    11    11    12    1
    12    11    13    1
    13    12    21    1
    14    13    14    1
    15    13    19    1
    16    14    15    1
    17    15    16    1
    18    15    17    1
    19    15    18    1
    20    19    20    1
    21    19    21    1
    22    21    22    1
    23    22    23   ar
    24    22    31   ar
    25    23    24   ar
    26    24    25   ar
    27    25    26   ar
    28    25    31   ar
    29    26    27    1
    30    26    28   ar
    31    28    29   ar
    32    29    30   ar
    33    30    31   ar
    34    32    10    1
    35    33    10    1
    36    11    34    1
    37    13    35    1
    38    19    36    1
    39    21    37    1
    40    38    23    1
    41    39    29    1
    42    40    27    1
    43    41    27    1
    44    42    20    1
@<TRIPOS>SUBSTRUCTURE
     1 UNL1        1 TEMP              0 ****  ****    0 ROOT

########## Name:	5	2839.59  0.333014
@<TRIPOS>MOLECULE
af2_protein.mol25	
 42 44 1 0 0
SMALL
GASTEIGER


@<TRIPOS>ATOM
      1 P          -9.7644   18.2619    0.0671 P.3     1  UNL1        0.0544
      2 O         -10.8449   18.1631    1.0690 O.co2   1  UNL1       -0.6615
      3 O          -8.4682   18.8084    0.5945 O.co2   1  UNL1       -0.6615
      4 O         -10.1880   18.8843   -1.2088 O.co2   1  UNL1       -0.6615
      5 P          -8.0857   15.8517   -1.0428 P.3     1  UNL1        0.2491
      6 O          -6.8754   16.4630   -0.4180 O.co2   1  UNL1       -0.6337
      7 O          -8.1628   15.7894   -2.5276 O.co2   1  UNL1       -0.6337
      8 O          -9.3924   16.7063   -0.3223 O.3     1  UNL1       -0.0930
      9 O          -8.2087   14.3414   -0.4476 O.3     1  UNL1       -0.2057
     10 C          -7.0988   13.4654   -0.4558 C.3     1  UNL1        0.1232
     11 C          -6.6617   13.3805   -1.8889 C.3     1  UNL1        0.1214
     12 O          -5.5015   14.2127   -1.9912 O.3     1  UNL1       -0.3453
     13 C          -6.2246   11.9512   -2.3110 C.3     1  UNL1        0.1593
     14 O          -6.5529   11.7401   -3.7144 O.3     1  UNL1       -0.2421
     15 P          -8.1756   11.7667   -4.2462 P.3     1  UNL1       -0.0004
     16 O          -8.2171   10.5285   -5.0633 O.co2   1  UNL1       -0.6646
     17 O          -8.9345   11.7077   -2.9709 O.co2   1  UNL1       -0.6646
     18 O          -8.3569   13.0614   -4.9705 O.co2   1  UNL1       -0.6646
     19 C          -4.7176   12.0342   -2.1003 C.3     1  UNL1        0.1329
     20 O          -4.0329   11.0166   -2.8641 O.3     1  UNL1       -0.3845
     21 C          -4.5395   13.4442   -2.6972 C.3     1  UNL1        0.1668
     22 N          -3.2546   14.1265   -2.4240 N.ar    1  UNL1       -0.2855
     23 C          -2.3625   14.4503   -3.4155 C.ar    1  UNL1        0.1004
     24 N          -1.2834   15.0365   -2.9886 N.ar    1  UNL1       -0.2306
     25 C          -1.4502   15.1236   -1.5695 C.ar    1  UNL1        0.1473
     26 C          -0.6089   15.6848   -0.5163 C.ar    1  UNL1        0.1472
     27 N           0.6242   16.1711   -0.7571 N.pl3   1  UNL1       -0.3413
     28 N          -1.0870   15.6350    0.7549 N.ar    1  UNL1       -0.2188
     29 C          -2.2809   15.0576    0.9545 C.ar    1  UNL1        0.1205
     30 N          -3.1534   14.4929    0.0849 N.ar    1  UNL1       -0.2159
     31 C          -2.6697   14.5630   -1.2057 C.ar    1  UNL1        0.1674
     32 H          -6.2953   13.8639    0.1638 H       1  UNL1        0.0631
     33 H          -7.3963   12.4806   -0.0958 H       1  UNL1        0.0631
     34 H          -7.4495   13.7459   -2.5477 H       1  UNL1        0.0650
     35 H          -6.6765   11.1899   -1.6751 H       1  UNL1        0.0694
     36 H          -4.4506   12.0011   -1.0441 H       1  UNL1        0.0667
     37 H          -4.7557   13.4414   -3.7656 H       1  UNL1        0.0866
     38 H          -2.5414   14.2370   -4.4591 H       1  UNL1        0.1030
     39 H          -2.6021   15.0396    1.9855 H       1  UNL1        0.1048
     40 H           0.7344   17.0622   -1.2196 H       1  UNL1        0.1438
     41 H           1.4386   15.6444   -0.4753 H       1  UNL1        0.1438
     42 H          -3.1556   11.3281   -3.0987 H       1  UNL1        0.2101
@<TRIPOS>BOND
     1     1     2    1
     2     1     3    1
     3     1     4    1
     4     1     8    1
     5     5     6    1
     6     5     7    1
     7     5     8    1
     8     5     9    1
     9     9    10    1
    10    10    11    1
    11    11    12    1
    12    11    13    1
    13    12    21    1
    14    13    14    1
    15    13    19    1
    16    14    15    1
    17    15    16    1
    18    15    17    1
    19    15    18    1
    20    19    20    1
    21    19    21    1
    22    21    22    1
    23    22    23   ar
    24    22    31   ar
    25    23    24   ar
    26    24    25   ar
    27    25    26   ar
    28    25    31   ar
    29    26    27    1
    30    26    28   ar
    31    28    29   ar
    32    29    30   ar
    33    30    31   ar
    34    32    10    1
    35    33    10    1
    36    11    34    1
    37    13    35    1
    38    19    36    1
    39    21    37    1
    40    38    23    1
    41    39    29    1
    42    40    27    1
    43    41    27    1
    44    42    20    1
@<TRIPOS>SUBSTRUCTURE
     1 UNL1        1 TEMP              0 ****  ****    0 ROOT

########## Name:	6	2778.99  0.321444
@<TRIPOS>MOLECULE
af2_protein.mol26	
 42 44 1 0 0
SMALL
GASTEIGER


@<TRIPOS>ATOM
      1 P          -6.8164   12.9205    3.9173 P.3     1  UNL1        0.0544
      2 O          -5.7791   12.6157    4.9234 O.co2   1  UNL1       -0.6615
      3 O          -7.1301   14.3815    3.7627 O.co2   1  UNL1       -0.6615
      4 O          -8.0240   12.0694    4.0276 O.co2   1  UNL1       -0.6615
      5 P          -6.4046   12.8667    0.8050 P.3     1  UNL1        0.2491
      6 O          -6.6718   14.3356    0.7876 O.co2   1  UNL1       -0.6337
      7 O          -7.3881   11.9591    0.1544 O.co2   1  UNL1       -0.6337
      8 O          -6.1450   12.5190    2.4689 O.3     1  UNL1       -0.0930
      9 O          -4.9488   12.6467    0.1104 O.3     1  UNL1       -0.2057
     10 C          -4.6447   13.2338   -1.1395 C.3     1  UNL1        0.1232
     11 C          -5.7037   12.7452   -2.0837 C.3     1  UNL1        0.1214
     12 O          -6.6171   13.8360   -2.2412 O.3     1  UNL1       -0.3453
     13 C          -5.1555   12.4140   -3.4986 C.3     1  UNL1        0.1593
     14 O          -5.9206   11.3127   -4.0677 O.3     1  UNL1       -0.2421
     15 P          -5.9114    9.7707   -3.3336 P.3     1  UNL1       -0.0004
     16 O          -5.6502    8.9073   -4.5120 O.co2   1  UNL1       -0.6646
     17 O          -4.7878    9.8791   -2.3685 O.co2   1  UNL1       -0.6646
     18 O          -7.2392    9.6184   -2.6645 O.co2   1  UNL1       -0.6646
     19 C          -5.4350   13.7205   -4.2315 C.3     1  UNL1        0.1329
     20 O          -5.4627   13.5145   -5.6614 O.3     1  UNL1       -0.3845
     21 C          -6.8388   13.9519   -3.6384 C.3     1  UNL1        0.1668
     22 N          -7.4190   15.3034   -3.8057 N.ar    1  UNL1       -0.2855
     23 C          -8.5525   15.5365   -4.5436 C.ar    1  UNL1        0.1004
     24 N          -8.9096   16.7858   -4.5883 N.ar    1  UNL1       -0.2306
     25 C          -7.9286   17.4761   -3.8070 C.ar    1  UNL1        0.1473
     26 C          -7.7700   18.8839   -3.4538 C.ar    1  UNL1        0.1472
     27 N          -8.5682   19.8489   -3.9505 N.pl3   1  UNL1       -0.3413
     28 N          -6.7248   19.2096   -2.6485 N.ar    1  UNL1       -0.2188
     29 C          -5.9046   18.2242   -2.2550 C.ar    1  UNL1        0.1205
     30 N          -5.9241   16.8937   -2.5114 N.ar    1  UNL1       -0.2159
     31 C          -6.9978   16.5677   -3.3147 C.ar    1  UNL1        0.1674
     32 H          -4.6731   14.3210   -1.0658 H       1  UNL1        0.0631
     33 H          -3.6614   12.9068   -1.4775 H       1  UNL1        0.0631
     34 H          -6.2160   11.8796   -1.6636 H       1  UNL1        0.0650
     35 H          -4.0893   12.1896   -3.4727 H       1  UNL1        0.0694
     36 H          -4.7362   14.5066   -3.9456 H       1  UNL1        0.0667
     37 H          -7.5348   13.1873   -3.9837 H       1  UNL1        0.0866
     38 H          -9.0999   14.7510   -5.0434 H       1  UNL1        0.1030
     39 H          -5.0883   18.5465   -1.6256 H       1  UNL1        0.1048
     40 H          -9.5147   19.9457   -3.6117 H       1  UNL1        0.1438
     41 H          -8.2200   20.4757   -4.6619 H       1  UNL1        0.1438
     42 H          -6.0521   14.1552   -6.0660 H       1  UNL1        0.2101
@<TRIPOS>BOND
     1     1     2    1
     2     1     3    1
     3     1     4    1
     4     1     8    1
     5     5     6    1
     6     5     7    1
     7     5     8    1
     8     5     9    1
     9     9    10    1
    10    10    11    1
    11    11    12    1
    12    11    13    1
    13    12    21    1
    14    13    14    1
    15    13    19    1
    16    14    15    1
    17    15    16    1
    18    15    17    1
    19    15    18    1
    20    19    20    1
    21    19    21    1
    22    21    22    1
    23    22    23   ar
    24    22    31   ar
    25    23    24   ar
    26    24    25   ar
    27    25    26   ar
    28    25    31   ar
    29    26    27    1
    30    26    28   ar
    31    28    29   ar
    32    29    30   ar
    33    30    31   ar
    34    32    10    1
    35    33    10    1
    36    11    34    1
    37    13    35    1
    38    19    36    1
    39    21    37    1
    40    38    23    1
    41    39    29    1
    42    40    27    1
    43    41    27    1
    44    42    20    1
@<TRIPOS>SUBSTRUCTURE
     1 UNL1        1 TEMP              0 ****  ****    0 ROOT

########## Name:	7	2649.17  0.314718
@<TRIPOS>MOLECULE
af2_protein.mol27	
 42 44 1 0 0
SMALL
GASTEIGER


@<TRIPOS>ATOM
      1 P          -2.4767   10.8088   -4.2237 P.3     1  UNL1        0.0544
      2 O          -2.6408    9.3796   -4.5572 O.co2   1  UNL1       -0.6615
      3 O          -2.7644   11.7540   -5.3555 O.co2   1  UNL1       -0.6615
      4 O          -1.2151   11.1147   -3.5099 O.co2   1  UNL1       -0.6615
      5 P          -4.4843   12.5230   -2.5236 P.3     1  UNL1        0.2491
      6 O          -4.7354   13.3545   -3.7379 O.co2   1  UNL1       -0.6337
      7 O          -3.7963   13.1514   -1.3633 O.co2   1  UNL1       -0.6337
      8 O          -3.6694   11.1391   -3.1382 O.3     1  UNL1       -0.0930
      9 O          -5.9310   11.9600   -2.0332 O.3     1  UNL1       -0.2057
     10 C          -7.0317   12.8324   -1.8693 C.3     1  UNL1        0.1232
     11 C          -6.5739   13.8827   -0.9003 C.3     1  UNL1        0.1214
     12 O          -6.2826   15.0401   -1.6907 O.3     1  UNL1       -0.3453
     13 C          -7.6738   14.2998    0.1138 C.3     1  UNL1        0.1593
     14 O          -7.0521   14.6533    1.3829 O.3     1  UNL1       -0.2421
     15 P          -6.1852   13.4910    2.2854 P.3     1  UNL1       -0.0004
     16 O          -6.7692   13.6992    3.6338 O.co2   1  UNL1       -0.6646
     17 O          -6.5654   12.2178    1.6221 O.co2   1  UNL1       -0.6646
     18 O          -4.7382   13.8246    2.1161 O.co2   1  UNL1       -0.6646
     19 C          -8.2573   15.5257   -0.5784 C.3     1  UNL1        0.1329
     20 O          -8.9551   16.3681    0.3655 O.3     1  UNL1       -0.3845
     21 C          -6.9100   16.1261   -1.0261 C.3     1  UNL1        0.1668
     22 N          -6.9635   17.1973   -2.0463 N.ar    1  UNL1       -0.2855
     23 C          -6.5559   18.4830   -1.7922 C.ar    1  UNL1        0.1004
     24 N          -6.6848   19.2907   -2.8029 N.ar    1  UNL1       -0.2306
     25 C          -7.2326   18.4832   -3.8503 C.ar    1  UNL1        0.1473
     26 C          -7.5940   18.7838   -5.2327 C.ar    1  UNL1        0.1472
     27 N          -7.5396   20.0306   -5.7402 N.pl3   1  UNL1       -0.3413
     28 N          -8.0672   17.7587   -5.9892 N.ar    1  UNL1       -0.2188
     29 C          -8.1889   16.5552   -5.4102 C.ar    1  UNL1        0.1205
     30 N          -7.9067   16.1400   -4.1515 N.ar    1  UNL1       -0.2159
     31 C          -7.4101   17.1815   -3.3944 C.ar    1  UNL1        0.1674
     32 H          -7.3021   13.2865   -2.8226 H       1  UNL1        0.0631
     33 H          -7.8824   12.2888   -1.4585 H       1  UNL1        0.0631
     34 H          -5.6799   13.5487   -0.3736 H       1  UNL1        0.0650
     35 H          -8.4214   13.5166    0.2385 H       1  UNL1        0.0694
     36 H          -8.8859   15.2550   -1.4267 H       1  UNL1        0.0667
     37 H          -6.3228   16.4427   -0.1641 H       1  UNL1        0.0866
     38 H          -6.1625   18.7963   -0.8364 H       1  UNL1        0.1030
     39 H          -8.5791   15.7845   -6.0584 H       1  UNL1        0.1048
     40 H          -6.6466   20.4483   -5.9593 H       1  UNL1        0.1438
     41 H          -8.3921   20.5478   -5.9014 H       1  UNL1        0.1438
     42 H          -8.9136   17.2811    0.0717 H       1  UNL1        0.2101
@<TRIPOS>BOND
     1     1     2    1
     2     1     3    1
     3     1     4    1
     4     1     8    1
     5     5     6    1
     6     5     7    1
     7     5     8    1
     8     5     9    1
     9     9    10    1
    10    10    11    1
    11    11    12    1
    12    11    13    1
    13    12    21    1
    14    13    14    1
    15    13    19    1
    16    14    15    1
    17    15    16    1
    18    15    17    1
    19    15    18    1
    20    19    20    1
    21    19    21    1
    22    21    22    1
    23    22    23   ar
    24    22    31   ar
    25    23    24   ar
    26    24    25   ar
    27    25    26   ar
    28    25    31   ar
    29    26    27    1
    30    26    28   ar
    31    28    29   ar
    32    29    30   ar
    33    30    31   ar
    34    32    10    1
    35    33    10    1
    36    11    34    1
    37    13    35    1
    38    19    36    1
    39    21    37    1
    40    38    23    1
    41    39    29    1
    42    40    27    1
    43    41    27    1
    44    42    20    1
@<TRIPOS>SUBSTRUCTURE
     1 UNL1        1 TEMP              0 ****  ****    0 ROOT

########## Name:	8	2461.86  0.314625
@<TRIPOS>MOLECULE
af2_protein.mol28	
 42 44 1 0 0
SMALL
GASTEIGER


@<TRIPOS>ATOM
      1 P          -2.3973    9.5832   -4.7820 P.3     1  UNL1        0.0544
      2 O          -2.2023    9.7251   -6.2390 O.co2   1  UNL1       -0.6615
      3 O          -1.2168    9.9936   -3.9484 O.co2   1  UNL1       -0.6615
      4 O          -2.9740    8.2789   -4.3807 O.co2   1  UNL1       -0.6615
      5 P          -4.1065   11.5032   -2.9789 P.3     1  UNL1        0.2491
      6 O          -2.8507   11.8801   -2.2648 O.co2   1  UNL1       -0.6337
      7 O          -5.1468   10.7451   -2.2324 O.co2   1  UNL1       -0.6337
      8 O          -3.5466   10.6944   -4.3893 O.3     1  UNL1       -0.0930
      9 O          -4.7628   12.8854   -3.5349 O.3     1  UNL1       -0.2057
     10 C          -4.9430   13.9981   -2.6813 C.3     1  UNL1        0.1232
     11 C          -5.7766   13.4991   -1.5377 C.3     1  UNL1        0.1214
     12 O          -4.8684   13.3125   -0.4471 O.3     1  UNL1       -0.3453
     13 C          -6.8398   14.5266   -1.0623 C.3     1  UNL1        0.1593
     14 O          -8.0174   13.8164   -0.5818 O.3     1  UNL1       -0.2421
     15 P          -8.9403   12.8402   -1.6363 P.3     1  UNL1       -0.0004
     16 O         -10.3101   13.3196   -1.3257 O.co2   1  UNL1       -0.6646
     17 O          -8.4228   13.2295   -2.9728 O.co2   1  UNL1       -0.6646
     18 O          -8.6225   11.4238   -1.2804 O.co2   1  UNL1       -0.6646
     19 C          -6.0965   15.2057    0.0816 C.3     1  UNL1        0.1329
     20 O          -7.0199   15.8528    0.9851 O.3     1  UNL1       -0.3845
     21 C          -5.4876   13.9204    0.6760 C.3     1  UNL1        0.1668
     22 N          -4.3875   14.0928    1.6513 N.ar    1  UNL1       -0.2855
     23 C          -4.4954   13.7098    2.9648 C.ar    1  UNL1        0.1004
     24 N          -3.4337   13.9476    3.6765 N.ar    1  UNL1       -0.2306
     25 C          -2.5089   14.5509    2.7654 C.ar    1  UNL1        0.1473
     26 C          -1.1410   15.0333    2.9331 C.ar    1  UNL1        0.1472
     27 N          -0.5258   15.0626    4.1313 N.pl3   1  UNL1       -0.3413
     28 N          -0.5174   15.5312    1.8330 N.ar    1  UNL1       -0.2188
     29 C          -1.2056   15.5646    0.6824 C.ar    1  UNL1        0.1205
     30 N          -2.4672   15.1672    0.3875 N.ar    1  UNL1       -0.2159
     31 C          -3.0879   14.6465    1.5047 C.ar    1  UNL1        0.1674
     32 H          -3.9803   14.3603   -2.3204 H       1  UNL1        0.0631
     33 H          -5.4687   14.7938   -3.2091 H       1  UNL1        0.0631
     34 H          -6.2532   12.5545   -1.7998 H       1  UNL1        0.0650
     35 H          -7.0934   15.2347   -1.8512 H       1  UNL1        0.0694
     36 H          -5.3302   15.8915   -0.2796 H       1  UNL1        0.0667
     37 H          -6.2671   13.2762    1.0830 H       1  UNL1        0.0866
     38 H          -5.3845   13.2510    3.3717 H       1  UNL1        0.1030
     39 H          -0.6608   15.9797   -0.1526 H       1  UNL1        0.1048
     40 H          -0.1976   14.2050    4.5518 H       1  UNL1        0.1438
     41 H          -0.3929   15.9424    4.6092 H       1  UNL1        0.1438
     42 H          -6.6464   15.8663    1.8694 H       1  UNL1        0.2101
@<TRIPOS>BOND
     1     1     2    1
     2     1     3    1
     3     1     4    1
     4     1     8    1
     5     5     6    1
     6     5     7    1
     7     5     8    1
     8     5     9    1
     9     9    10    1
    10    10    11    1
    11    11    12    1
    12    11    13    1
    13    12    21    1
    14    13    14    1
    15    13    19    1
    16    14    15    1
    17    15    16    1
    18    15    17    1
    19    15    18    1
    20    19    20    1
    21    19    21    1
    22    21    22    1
    23    22    23   ar
    24    22    31   ar
    25    23    24   ar
    26    24    25   ar
    27    25    26   ar
    28    25    31   ar
    29    26    27    1
    30    26    28   ar
    31    28    29   ar
    32    29    30   ar
    33    30    31   ar
    34    32    10    1
    35    33    10    1
    36    11    34    1
    37    13    35    1
    38    19    36    1
    39    21    37    1
    40    38    23    1
    41    39    29    1
    42    40    27    1
    43    41    27    1
    44    42    20    1
@<TRIPOS>SUBSTRUCTURE
     1 UNL1        1 TEMP              0 ****  ****    0 ROOT

########## Name:	9	2820.88  0.348558
@<TRIPOS>MOLECULE
af2_protein.mol29	
 42 44 1 0 0
SMALL
GASTEIGER


@<TRIPOS>ATOM
      1 P         -11.5927   13.3091   -4.4892 P.3     1  UNL1        0.0544
      2 O         -12.7338   12.3853   -4.6489 O.co2   1  UNL1       -0.6615
      3 O         -11.5438   14.0230   -3.1683 O.co2   1  UNL1       -0.6615
      4 O         -11.3836   14.2063   -5.6494 O.co2   1  UNL1       -0.6615
      5 P          -8.6236   12.4542   -3.9301 P.3     1  UNL1        0.2491
      6 O          -8.7182   13.1466   -2.6107 O.co2   1  UNL1       -0.6337
      7 O          -7.7067   13.0131   -4.9603 O.co2   1  UNL1       -0.6337
      8 O         -10.2585   12.3455   -4.4519 O.3     1  UNL1       -0.0930
      9 O          -8.1906   10.9154   -3.6223 O.3     1  UNL1       -0.2057
     10 C          -7.0907   10.6249   -2.7826 C.3     1  UNL1        0.1232
     11 C          -5.9190   11.3389   -3.3902 C.3     1  UNL1        0.1214
     12 O          -5.7157   12.5059   -2.5866 O.3     1  UNL1       -0.3453
     13 C          -4.6024   10.5176   -3.3260 C.3     1  UNL1        0.1593
     14 O          -3.7843   10.8239   -4.4917 O.3     1  UNL1       -0.2421
     15 P          -4.3339   10.4565   -6.0664 P.3     1  UNL1       -0.0004
     16 O          -3.1367    9.7793   -6.6238 O.co2   1  UNL1       -0.6646
     17 O          -5.4963    9.5701   -5.8041 O.co2   1  UNL1       -0.6646
     18 O          -4.7248   11.7587   -6.6871 O.co2   1  UNL1       -0.6646
     19 C          -3.9781   11.0689   -2.0498 C.3     1  UNL1        0.1329
     20 O          -2.5540   10.8259   -2.0252 O.3     1  UNL1       -0.3845
     21 C          -4.3229   12.5475   -2.3164 C.3     1  UNL1        0.1668
     22 N          -4.2002   13.4777   -1.1714 N.ar    1  UNL1       -0.2855
     23 C          -3.2953   14.5093   -1.1490 C.ar    1  UNL1        0.1004
     24 N          -3.3225   15.2162   -0.0582 N.ar    1  UNL1       -0.2306
     25 C          -4.3428   14.6130    0.7445 C.ar    1  UNL1        0.1473
     26 C          -4.8713   14.9394    2.0659 C.ar    1  UNL1        0.1472
     27 N          -4.3443   15.9107    2.8365 N.pl3   1  UNL1       -0.3413
     28 N          -5.8870   14.1692    2.5375 N.ar    1  UNL1       -0.2188
     29 C          -6.3151   13.1560    1.7702 C.ar    1  UNL1        0.1205
     30 N          -5.9152   12.7359    0.5455 N.ar    1  UNL1       -0.2159
     31 C          -4.8962   13.5332    0.0653 C.ar    1  UNL1        0.1674
     32 H          -7.2765   10.9903   -1.7726 H       1  UNL1        0.0631
     33 H          -6.9067    9.5508   -2.7645 H       1  UNL1        0.0631
     34 H          -6.1395   11.6214   -4.4197 H       1  UNL1        0.0650
     35 H          -4.8005    9.4488   -3.2455 H       1  UNL1        0.0694
     36 H          -4.4728   10.6888   -1.1561 H       1  UNL1        0.0667
     37 H          -3.7730   12.9227   -3.1794 H       1  UNL1        0.0866
     38 H          -2.6198   14.7158   -1.9661 H       1  UNL1        0.1030
     39 H          -7.1161   12.5750    2.2029 H       1  UNL1        0.1048
     40 H          -4.5106   16.8809    2.6105 H       1  UNL1        0.1438
     41 H          -3.7827   15.6687    3.6403 H       1  UNL1        0.1438
     42 H          -2.1200   11.5160   -1.5182 H       1  UNL1        0.2101
@<TRIPOS>BOND
     1     1     2    1
     2     1     3    1
     3     1     4    1
     4     1     8    1
     5     5     6    1
     6     5     7    1
     7     5     8    1
     8     5     9    1
     9     9    10    1
    10    10    11    1
    11    11    12    1
    12    11    13    1
    13    12    21    1
    14    13    14    1
    15    13    19    1
    16    14    15    1
    17    15    16    1
    18    15    17    1
    19    15    18    1
    20    19    20    1
    21    19    21    1
    22    21    22    1
    23    22    23   ar
    24    22    31   ar
    25    23    24   ar
    26    24    25   ar
    27    25    26   ar
    28    25    31   ar
    29    26    27    1
    30    26    28   ar
    31    28    29   ar
    32    29    30   ar
    33    30    31   ar
    34    32    10    1
    35    33    10    1
    36    11    34    1
    37    13    35    1
    38    19    36    1
    39    21    37    1
    40    38    23    1
    41    39    29    1
    42    40    27    1
    43    41    27    1
    44    42    20    1
@<TRIPOS>SUBSTRUCTURE
     1 UNL1        1 TEMP              0 ****  ****    0 ROOT

########## Name:	10	2847.21  0.296902
@<TRIPOS>MOLECULE
af2_protein.mol210	
 42 44 1 0 0
SMALL
GASTEIGER


@<TRIPOS>ATOM
      1 P          -9.7255   17.6361    1.6242 P.3     1  UNL1        0.0544
      2 O          -9.4343   18.1274    2.9861 O.co2   1  UNL1       -0.6615
      3 O          -9.4419   18.6230    0.5276 O.co2   1  UNL1       -0.6615
      4 O         -11.0474   16.9797    1.4958 O.co2   1  UNL1       -0.6615
      5 P          -7.9592   15.6067    0.0053 P.3     1  UNL1        0.2491
      6 O          -7.6985   16.6916   -0.9868 O.co2   1  UNL1       -0.6337
      7 O          -8.7615   14.4296   -0.4252 O.co2   1  UNL1       -0.6337
      8 O          -8.6288   16.4387    1.3530 O.3     1  UNL1       -0.0930
      9 O          -6.5065   15.0888    0.5265 O.3     1  UNL1       -0.2057
     10 C          -5.4866   14.7450   -0.3905 C.3     1  UNL1        0.1232
     11 C          -6.0800   13.6905   -1.2780 C.3     1  UNL1        0.1214
     12 O          -6.4093   14.3538   -2.5030 O.3     1  UNL1       -0.3453
     13 C          -5.0780   12.5597   -1.6379 C.3     1  UNL1        0.1593
     14 O          -5.8001   11.3034   -1.7870 O.3     1  UNL1       -0.2421
     15 P          -6.6299   10.6099   -0.4651 P.3     1  UNL1       -0.0004
     16 O          -6.1459    9.2091   -0.5416 O.co2   1  UNL1       -0.6646
     17 O          -6.1154   11.3940    0.6865 O.co2   1  UNL1       -0.6646
     18 O          -8.0850   10.8375   -0.7191 O.co2   1  UNL1       -0.6646
     19 C          -4.5477   13.0570   -2.9773 C.3     1  UNL1        0.1329
     20 O          -3.9737   11.9722   -3.7399 O.3     1  UNL1       -0.3845
     21 C          -5.9068   13.5213   -3.5370 C.3     1  UNL1        0.1668
     22 N          -5.8726   14.3987   -4.7287 N.ar    1  UNL1       -0.2855
     23 C          -6.3905   14.0202   -5.9421 C.ar    1  UNL1        0.1004
     24 N          -6.2620   14.9147   -6.8768 N.ar    1  UNL1       -0.2306
     25 C          -5.5926   16.0114   -6.2456 C.ar    1  UNL1        0.1473
     26 C          -5.1720   17.3190   -6.7406 C.ar    1  UNL1        0.1472
     27 N          -5.2893   17.6750   -8.0346 N.pl3   1  UNL1       -0.3413
     28 N          -4.5780   18.1591   -5.8525 N.ar    1  UNL1       -0.2188
     29 C          -4.4012   17.7223   -4.5969 C.ar    1  UNL1        0.1205
     30 N          -4.7269   16.5455   -4.0092 N.ar    1  UNL1       -0.2159
     31 C          -5.3454   15.7046   -4.9119 C.ar    1  UNL1        0.1674
     32 H          -5.1940   15.6156   -0.9776 H       1  UNL1        0.0631
     33 H          -4.6237   14.3448    0.1417 H       1  UNL1        0.0631
     34 H          -6.9765   13.2711   -0.8213 H       1  UNL1        0.0650
     35 H          -4.2824   12.4789   -0.8974 H       1  UNL1        0.0694
     36 H          -3.8504   13.8861   -2.8579 H       1  UNL1        0.0667
     37 H          -6.5672   12.6701   -3.7029 H       1  UNL1        0.0866
     38 H          -6.8635   13.0632   -6.1060 H       1  UNL1        0.1030
     39 H          -3.9156   18.4302   -3.9415 H       1  UNL1        0.1048
     40 H          -6.1964   17.9035   -8.4154 H       1  UNL1        0.1438
     41 H          -4.4701   17.7132   -8.6241 H       1  UNL1        0.1438
     42 H          -4.0660   12.1560   -4.6777 H       1  UNL1        0.2101
@<TRIPOS>BOND
     1     1     2    1
     2     1     3    1
     3     1     4    1
     4     1     8    1
     5     5     6    1
     6     5     7    1
     7     5     8    1
     8     5     9    1
     9     9    10    1
    10    10    11    1
    11    11    12    1
    12    11    13    1
    13    12    21    1
    14    13    14    1
    15    13    19    1
    16    14    15    1
    17    15    16    1
    18    15    17    1
    19    15    18    1
    20    19    20    1
    21    19    21    1
    22    21    22    1
    23    22    23   ar
    24    22    31   ar
    25    23    24   ar
    26    24    25   ar
    27    25    26   ar
    28    25    31   ar
    29    26    27    1
    30    26    28   ar
    31    28    29   ar
    32    29    30   ar
    33    30    31   ar
    34    32    10    1
    35    33    10    1
    36    11    34    1
    37    13    35    1
    38    19    36    1
    39    21    37    1
    40    38    23    1
    41    39    29    1
    42    40    27    1
    43    41    27    1
    44    42    20    1
@<TRIPOS>SUBSTRUCTURE
     1 UNL1        1 TEMP              0 ****  ****    0 ROOT

########## Name:	11	2648.01  0.321938
@<TRIPOS>MOLECULE
af2_protein.mol211	
 42 44 1 0 0
SMALL
GASTEIGER


@<TRIPOS>ATOM
      1 P          -9.6926   12.3988    3.3934 P.3     1  UNL1        0.0544
      2 O         -10.2903   13.2502    4.4416 O.co2   1  UNL1       -0.6615
      3 O         -10.6401   11.9902    2.3015 O.co2   1  UNL1       -0.6615
      4 O          -8.8886   11.2734    3.9244 O.co2   1  UNL1       -0.6615
      5 P          -7.7801   13.3946    1.1110 P.3     1  UNL1        0.2491
      6 O          -8.8283   13.0049    0.1218 O.co2   1  UNL1       -0.6337
      7 O          -6.4992   12.6373    1.1227 O.co2   1  UNL1       -0.6337
      8 O          -8.6095   13.3652    2.6170 O.3     1  UNL1       -0.0930
      9 O          -7.4558   14.9693    0.8548 O.3     1  UNL1       -0.2057
     10 C          -7.1742   15.4503   -0.4447 C.3     1  UNL1        0.1232
     11 C          -6.0117   14.6370   -0.9333 C.3     1  UNL1        0.1214
     12 O          -6.5633   13.6758   -1.8393 O.3     1  UNL1       -0.3453
     13 C          -4.9791   15.4703   -1.7407 C.3     1  UNL1        0.1593
     14 O          -3.6446   14.9285   -1.5227 O.3     1  UNL1       -0.2421
     15 P          -2.9411   14.9370    0.0335 P.3     1  UNL1       -0.0004
     16 O          -1.5999   15.4926   -0.2746 O.co2   1  UNL1       -0.6646
     17 O          -3.8418   15.8435    0.7902 O.co2   1  UNL1       -0.6646
     18 O          -2.9924   13.5258    0.5230 O.co2   1  UNL1       -0.6646
     19 C          -5.4539   15.2184   -3.1666 C.3     1  UNL1        0.1329
     20 O          -4.3969   15.4801   -4.1164 O.3     1  UNL1       -0.3845
     21 C          -5.7331   13.7128   -2.9899 C.3     1  UNL1        0.1668
     22 N          -6.5391   13.0558   -4.0435 N.ar    1  UNL1       -0.2855
     23 C          -6.0369   12.0661   -4.8510 C.ar    1  UNL1        0.1004
     24 N          -6.8850   11.6133   -5.7262 N.ar    1  UNL1       -0.2306
     25 C          -8.0830   12.3629   -5.4983 C.ar    1  UNL1        0.1473
     26 C          -9.3984   12.3250   -6.1309 C.ar    1  UNL1        0.1472
     27 N          -9.6644   11.5519   -7.2017 N.pl3   1  UNL1       -0.3413
     28 N         -10.3482   13.1656   -5.6428 N.ar    1  UNL1       -0.2188
     29 C         -10.0064   13.9817   -4.6349 C.ar    1  UNL1        0.1205
     30 N          -8.8366   14.1304   -3.9672 N.ar    1  UNL1       -0.2159
     31 C          -7.8823   13.2615   -4.4561 C.ar    1  UNL1        0.1674
     32 H          -8.0365   15.3111   -1.0968 H       1  UNL1        0.0631
     33 H          -6.9025   16.5050   -0.4029 H       1  UNL1        0.0631
     34 H          -5.5232   14.1343   -0.0986 H       1  UNL1        0.0650
     35 H          -5.0289   16.5282   -1.4831 H       1  UNL1        0.0694
     36 H          -6.3602   15.7772   -3.3999 H       1  UNL1        0.0667
     37 H          -4.8064   13.1661   -2.8154 H       1  UNL1        0.0866
     38 H          -5.0259   11.6958   -4.7666 H       1  UNL1        0.1030
     39 H         -10.7998   14.6320   -4.2974 H       1  UNL1        0.1048
     40 H          -9.7696   10.5536   -7.0903 H       1  UNL1        0.1438
     41 H          -9.7586   11.9706   -8.1159 H       1  UNL1        0.1438
     42 H          -4.5153   14.9228   -4.8890 H       1  UNL1        0.2101
@<TRIPOS>BOND
     1     1     2    1
     2     1     3    1
     3     1     4    1
     4     1     8    1
     5     5     6    1
     6     5     7    1
     7     5     8    1
     8     5     9    1
     9     9    10    1
    10    10    11    1
    11    11    12    1
    12    11    13    1
    13    12    21    1
    14    13    14    1
    15    13    19    1
    16    14    15    1
    17    15    16    1
    18    15    17    1
    19    15    18    1
    20    19    20    1
    21    19    21    1
    22    21    22    1
    23    22    23   ar
    24    22    31   ar
    25    23    24   ar
    26    24    25   ar
    27    25    26   ar
    28    25    31   ar
    29    26    27    1
    30    26    28   ar
    31    28    29   ar
    32    29    30   ar
    33    30    31   ar
    34    32    10    1
    35    33    10    1
    36    11    34    1
    37    13    35    1
    38    19    36    1
    39    21    37    1
    40    38    23    1
    41    39    29    1
    42    40    27    1
    43    41    27    1
    44    42    20    1
@<TRIPOS>SUBSTRUCTURE
     1 UNL1        1 TEMP              0 ****  ****    0 ROOT

########## Name:	12	2687.33  0.316695
@<TRIPOS>MOLECULE
af2_protein.mol212	
 42 44 1 0 0
SMALL
GASTEIGER


@<TRIPOS>ATOM
      1 P          -1.0888    9.9371   -4.8167 P.3     1  UNL1        0.0544
      2 O          -0.4409    8.7620   -4.1998 O.co2   1  UNL1       -0.6615
      3 O          -1.9098    9.6318   -6.0372 O.co2   1  UNL1       -0.6615
      4 O          -0.1816   11.0949   -4.9940 O.co2   1  UNL1       -0.6615
      5 P          -3.6274   11.4103   -3.7013 P.3     1  UNL1        0.2491
      6 O          -4.3586   10.9917   -4.9338 O.co2   1  UNL1       -0.6337
      7 O          -3.3540   12.8586   -3.4960 O.co2   1  UNL1       -0.6337
      8 O          -2.2084   10.4392   -3.7192 O.3     1  UNL1       -0.0930
      9 O          -4.4860   10.8542   -2.4349 O.3     1  UNL1       -0.2057
     10 C          -5.8770   11.0904   -2.3411 C.3     1  UNL1        0.1232
     11 C          -6.0393   12.5805   -2.4115 C.3     1  UNL1        0.1214
     12 O          -6.4837   12.8605   -3.7431 O.3     1  UNL1       -0.3453
     13 C          -7.1341   13.1222   -1.4523 C.3     1  UNL1        0.1593
     14 O          -6.7565   14.4506   -0.9889 O.3     1  UNL1       -0.2421
     15 P          -5.3458   14.6823   -0.0547 P.3     1  UNL1       -0.0004
     16 O          -5.8807   15.5202    1.0472 O.co2   1  UNL1       -0.6646
     17 O          -4.9799   13.2946    0.3275 O.co2   1  UNL1       -0.6646
     18 O          -4.3431   15.3183   -0.9625 O.co2   1  UNL1       -0.6646
     19 C          -8.3360   13.1817   -2.3873 C.3     1  UNL1        0.1329
     20 O          -9.3394   14.0896   -1.8809 O.3     1  UNL1       -0.3845
     21 C          -7.5785   13.7528   -3.6023 C.3     1  UNL1        0.1668
     22 N          -8.2710   13.6909   -4.9092 N.ar    1  UNL1       -0.2855
     23 C          -8.6409   14.8144   -5.6053 C.ar    1  UNL1        0.1004
     24 N          -9.2478   14.5678   -6.7283 N.ar    1  UNL1       -0.2306
     25 C          -9.2997   13.1396   -6.8113 C.ar    1  UNL1        0.1473
     26 C          -9.8332   12.2355   -7.8261 C.ar    1  UNL1        0.1472
     27 N         -10.5101   12.6764   -8.9043 N.pl3   1  UNL1       -0.3413
     28 N          -9.6875   10.9017   -7.6098 N.ar    1  UNL1       -0.2188
     29 C          -9.0872   10.5114   -6.4758 C.ar    1  UNL1        0.1205
     30 N          -8.5610   11.2296   -5.4542 N.ar    1  UNL1       -0.2159
     31 C          -8.6964   12.5828   -5.6889 C.ar    1  UNL1        0.1674
     32 H          -6.4006   10.6114   -3.1685 H       1  UNL1        0.0631
     33 H          -6.2571   10.7165   -1.3905 H       1  UNL1        0.0631
     34 H          -5.0874   13.0751   -2.2178 H       1  UNL1        0.0650
     35 H          -7.3086   12.4419   -0.6188 H       1  UNL1        0.0694
     36 H          -8.7454   12.1920   -2.5895 H       1  UNL1        0.0667
     37 H          -7.2284   14.7647   -3.3984 H       1  UNL1        0.0866
     38 H          -8.4447   15.8158   -5.2512 H       1  UNL1        0.1030
     39 H          -9.0100    9.4409   -6.3563 H       1  UNL1        0.1048
     40 H         -10.0153   13.1206   -9.6645 H       1  UNL1        0.1438
     41 H         -11.5125   12.5627   -8.9524 H       1  UNL1        0.1438
     42 H          -9.8300   14.4667   -2.6149 H       1  UNL1        0.2101
@<TRIPOS>BOND
     1     1     2    1
     2     1     3    1
     3     1     4    1
     4     1     8    1
     5     5     6    1
     6     5     7    1
     7     5     8    1
     8     5     9    1
     9     9    10    1
    10    10    11    1
    11    11    12    1
    12    11    13    1
    13    12    21    1
    14    13    14    1
    15    13    19    1
    16    14    15    1
    17    15    16    1
    18    15    17    1
    19    15    18    1
    20    19    20    1
    21    19    21    1
    22    21    22    1
    23    22    23   ar
    24    22    31   ar
    25    23    24   ar
    26    24    25   ar
    27    25    26   ar
    28    25    31   ar
    29    26    27    1
    30    26    28   ar
    31    28    29   ar
    32    29    30   ar
    33    30    31   ar
    34    32    10    1
    35    33    10    1
    36    11    34    1
    37    13    35    1
    38    19    36    1
    39    21    37    1
    40    38    23    1
    41    39    29    1
    42    40    27    1
    43    41    27    1
    44    42    20    1
@<TRIPOS>SUBSTRUCTURE
     1 UNL1        1 TEMP              0 ****  ****    0 ROOT

########## Name:	13	2898.95  0.319947
@<TRIPOS>MOLECULE
af2_protein.mol213	
 42 44 1 0 0
SMALL
GASTEIGER


@<TRIPOS>ATOM
      1 P          -2.7818    9.7261   -3.8305 P.3     1  UNL1        0.0544
      2 O          -2.3818    8.5699   -3.0032 O.co2   1  UNL1       -0.6615
      3 O          -3.4753    9.3687   -5.1142 O.co2   1  UNL1       -0.6615
      4 O          -1.7116   10.7360   -4.0029 O.co2   1  UNL1       -0.6615
      5 P          -5.2189   11.6201   -3.2540 P.3     1  UNL1        0.2491
      6 O          -5.8380   11.1388   -4.5245 O.co2   1  UNL1       -0.6337
      7 O          -4.7808   13.0398   -3.1717 O.co2   1  UNL1       -0.6337
      8 O          -3.9532   10.4927   -2.9644 O.3     1  UNL1       -0.0930
      9 O          -6.2981   11.3349   -2.0690 O.3     1  UNL1       -0.2057
     10 C          -7.6450   11.7449   -2.1998 C.3     1  UNL1        0.1232
     11 C          -7.5944   13.2227   -2.4550 C.3     1  UNL1        0.1214
     12 O          -7.8249   13.3828   -3.8587 O.3     1  UNL1       -0.3453
     13 C          -8.7187   14.0078   -1.7257 C.3     1  UNL1        0.1593
     14 O          -8.2270   15.3298   -1.3615 O.3     1  UNL1       -0.2421
     15 P          -6.9276   15.5084   -0.2678 P.3     1  UNL1       -0.0004
     16 O          -7.4797   16.5368    0.6488 O.co2   1  UNL1       -0.6646
     17 O          -6.8037   14.1467    0.3119 O.co2   1  UNL1       -0.6646
     18 O          -5.7415   15.9005   -1.0883 O.co2   1  UNL1       -0.6646
     19 C          -9.7734   14.0911   -2.8225 C.3     1  UNL1        0.1329
     20 O         -10.7011   15.1686   -2.5657 O.3     1  UNL1       -0.3845
     21 C          -8.7982   14.4095   -3.9729 C.3     1  UNL1        0.1668
     22 N          -9.3216   14.2655   -5.3500 N.ar    1  UNL1       -0.2855
     23 C          -9.4453   15.3278   -6.2102 C.ar    1  UNL1        0.1004
     24 N          -9.9329   15.0150   -7.3741 N.ar    1  UNL1       -0.2306
     25 C         -10.1661   13.6042   -7.3070 C.ar    1  UNL1        0.1473
     26 C         -10.6840   12.6488   -8.2822 C.ar    1  UNL1        0.1472
     27 N         -11.1532   13.0270   -9.4871 N.pl3   1  UNL1       -0.3413
     28 N         -10.7482   11.3453   -7.9028 N.ar    1  UNL1       -0.2188
     29 C         -10.3545   11.0331   -6.6594 C.ar    1  UNL1        0.1205
     30 N          -9.8697   11.8071   -5.6582 N.ar    1  UNL1       -0.2159
     31 C          -9.7905   13.1261   -6.0563 C.ar    1  UNL1        0.1674
     32 H          -8.1195   11.2307   -3.0356 H       1  UNL1        0.0631
     33 H          -8.1894   11.5422   -1.2775 H       1  UNL1        0.0631
     34 H          -6.6168   13.6211   -2.1836 H       1  UNL1        0.0650
     35 H          -9.0875   13.4641   -0.8560 H       1  UNL1        0.0694
     36 H         -10.2837   13.1395   -2.9712 H       1  UNL1        0.0667
     37 H          -8.3433   15.3902   -3.8333 H       1  UNL1        0.0866
     38 H          -9.1622   16.3355   -5.9436 H       1  UNL1        0.1030
     39 H         -10.4383    9.9848   -6.4138 H       1  UNL1        0.1048
     40 H         -10.5108   13.3094  -10.2135 H       1  UNL1        0.1438
     41 H         -12.1476   13.0282   -9.6641 H       1  UNL1        0.1438
     42 H         -11.0394   15.5054   -3.3987 H       1  UNL1        0.2101
@<TRIPOS>BOND
     1     1     2    1
     2     1     3    1
     3     1     4    1
     4     1     8    1
     5     5     6    1
     6     5     7    1
     7     5     8    1
     8     5     9    1
     9     9    10    1
    10    10    11    1
    11    11    12    1
    12    11    13    1
    13    12    21    1
    14    13    14    1
    15    13    19    1
    16    14    15    1
    17    15    16    1
    18    15    17    1
    19    15    18    1
    20    19    20    1
    21    19    21    1
    22    21    22    1
    23    22    23   ar
    24    22    31   ar
    25    23    24   ar
    26    24    25   ar
    27    25    26   ar
    28    25    31   ar
    29    26    27    1
    30    26    28   ar
    31    28    29   ar
    32    29    30   ar
    33    30    31   ar
    34    32    10    1
    35    33    10    1
    36    11    34    1
    37    13    35    1
    38    19    36    1
    39    21    37    1
    40    38    23    1
    41    39    29    1
    42    40    27    1
    43    41    27    1
    44    42    20    1
@<TRIPOS>SUBSTRUCTURE
     1 UNL1        1 TEMP              0 ****  ****    0 ROOT

########## Name:	14	2394.19  0.314772
@<TRIPOS>MOLECULE
af2_protein.mol214	
 42 44 1 0 0
SMALL
GASTEIGER


@<TRIPOS>ATOM
      1 P          -2.6329   10.0129   -4.4564 P.3     1  UNL1        0.0544
      2 O          -2.9105    8.5706   -4.6102 O.co2   1  UNL1       -0.6615
      3 O          -2.9423   10.8440   -5.6690 O.co2   1  UNL1       -0.6615
      4 O          -1.3058   10.3063   -3.8668 O.co2   1  UNL1       -0.6615
      5 P          -4.3991   12.0439   -2.8393 P.3     1  UNL1        0.2491
      6 O          -4.6854   12.7505   -4.1230 O.co2   1  UNL1       -0.6337
      7 O          -3.5901   12.7474   -1.8074 O.co2   1  UNL1       -0.6337
      8 O          -3.7200   10.5458   -3.3410 O.3     1  UNL1       -0.0930
      9 O          -5.8388   11.6430   -2.1935 O.3     1  UNL1       -0.2057
     10 C          -6.8675   12.6040   -2.0605 C.3     1  UNL1        0.1232
     11 C          -6.2750   13.7207   -1.2520 C.3     1  UNL1        0.1214
     12 O          -5.9699   14.7592   -2.1888 O.3     1  UNL1       -0.3453
     13 C          -7.2695   14.3252   -0.2236 C.3     1  UNL1        0.1593
     14 O          -6.5358   14.7730    0.9526 O.3     1  UNL1       -0.2421
     15 P          -5.6803   13.6601    1.9254 P.3     1  UNL1       -0.0004
     16 O          -6.1501   14.0582    3.2757 O.co2   1  UNL1       -0.6646
     17 O          -6.1873   12.3510    1.4407 O.co2   1  UNL1       -0.6646
     18 O          -4.2314   13.8694    1.6244 O.co2   1  UNL1       -0.6646
     19 C          -7.8236   15.5044   -1.0138 C.3     1  UNL1        0.1329
     20 O          -8.3963   16.4942   -0.1306 O.3     1  UNL1       -0.3845
     21 C          -6.4775   15.9542   -1.6153 C.3     1  UNL1        0.1668
     22 N          -6.5378   16.9061   -2.7473 N.ar    1  UNL1       -0.2855
     23 C          -6.0326   18.1800   -2.6715 C.ar    1  UNL1        0.1004
     24 N          -6.1838   18.8770   -3.7585 N.ar    1  UNL1       -0.2306
     25 C          -6.8564   17.9987   -4.6670 C.ar    1  UNL1        0.1473
     26 C          -7.2980   18.1681   -6.0483 C.ar    1  UNL1        0.1472
     27 N          -7.2025   19.3436   -6.6997 N.pl3   1  UNL1       -0.3413
     28 N          -7.8887   17.1012   -6.6482 N.ar    1  UNL1       -0.2188
     29 C          -8.0434   15.9814   -5.9265 C.ar    1  UNL1        0.1205
     30 N          -7.6968   15.6901   -4.6493 N.ar    1  UNL1       -0.2159
     31 C          -7.0817   16.7718   -4.0523 C.ar    1  UNL1        0.1674
     32 H          -7.1776   12.9670   -3.0404 H       1  UNL1        0.0631
     33 H          -7.7185   12.1713   -1.5346 H       1  UNL1        0.0631
     34 H          -5.3677   13.3851   -0.7496 H       1  UNL1        0.0650
     35 H          -8.0538   13.6157    0.0399 H       1  UNL1        0.0694
     36 H          -8.5282   15.1861   -1.7821 H       1  UNL1        0.0667
     37 H          -5.8102   16.3226   -0.8361 H       1  UNL1        0.0866
     38 H          -5.5516   18.5693   -1.7863 H       1  UNL1        0.1030
     39 H          -8.5276   15.1728   -6.4540 H       1  UNL1        0.1048
     40 H          -6.3033   19.6699   -7.0237 H       1  UNL1        0.1438
     41 H          -8.0302   19.8986   -6.8638 H       1  UNL1        0.1438
     42 H          -8.3190   17.3635   -0.5306 H       1  UNL1        0.2101
@<TRIPOS>BOND
     1     1     2    1
     2     1     3    1
     3     1     4    1
     4     1     8    1
     5     5     6    1
     6     5     7    1
     7     5     8    1
     8     5     9    1
     9     9    10    1
    10    10    11    1
    11    11    12    1
    12    11    13    1
    13    12    21    1
    14    13    14    1
    15    13    19    1
    16    14    15    1
    17    15    16    1
    18    15    17    1
    19    15    18    1
    20    19    20    1
    21    19    21    1
    22    21    22    1
    23    22    23   ar
    24    22    31   ar
    25    23    24   ar
    26    24    25   ar
    27    25    26   ar
    28    25    31   ar
    29    26    27    1
    30    26    28   ar
    31    28    29   ar
    32    29    30   ar
    33    30    31   ar
    34    32    10    1
    35    33    10    1
    36    11    34    1
    37    13    35    1
    38    19    36    1
    39    21    37    1
    40    38    23    1
    41    39    29    1
    42    40    27    1
    43    41    27    1
    44    42    20    1
@<TRIPOS>SUBSTRUCTURE
     1 UNL1        1 TEMP              0 ****  ****    0 ROOT

########## Name:	15	2421.93  0.326642
@<TRIPOS>MOLECULE
af2_protein.mol215	
 42 44 1 0 0
SMALL
GASTEIGER


@<TRIPOS>ATOM
      1 P          -1.5322    9.6681   -4.8434 P.3     1  UNL1        0.0544
      2 O          -0.5699    9.9324   -5.9321 O.co2   1  UNL1       -0.6615
      3 O          -1.0202    9.9767   -3.4652 O.co2   1  UNL1       -0.6615
      4 O          -2.1964    8.3474   -4.9408 O.co2   1  UNL1       -0.6615
      5 P          -4.0076   11.4620   -4.1271 P.3     1  UNL1        0.2491
      6 O          -3.3660   11.7459   -2.8093 O.co2   1  UNL1       -0.6337
      7 O          -5.2646   10.6658   -4.1473 O.co2   1  UNL1       -0.6337
      8 O          -2.7392   10.7670   -5.0571 O.3     1  UNL1       -0.0930
      9 O          -4.2881   12.9024   -4.8322 O.3     1  UNL1       -0.2057
     10 C          -4.9417   13.9401   -4.1283 C.3     1  UNL1        0.1232
     11 C          -6.2530   13.3623   -3.6829 C.3     1  UNL1        0.1214
     12 O          -6.0923   13.0600   -2.2929 O.3     1  UNL1       -0.3453
     13 C          -7.4314   14.3686   -3.7875 C.3     1  UNL1        0.1593
     14 O          -8.6573   13.6465   -4.1000 O.3     1  UNL1       -0.2421
     15 P          -8.8163   12.7879   -5.5677 P.3     1  UNL1       -0.0004
     16 O         -10.1433   13.2698   -6.0252 O.co2   1  UNL1       -0.6646
     17 O          -7.6588   13.2805   -6.3571 O.co2   1  UNL1       -0.6646
     18 O          -8.7065   11.3389   -5.2183 O.co2   1  UNL1       -0.6646
     19 C          -7.4628   14.9276   -2.3702 C.3     1  UNL1        0.1329
     20 O          -8.7498   15.5144   -2.0752 O.3     1  UNL1       -0.3845
     21 C          -7.2459   13.5815   -1.6512 C.3     1  UNL1        0.1668
     22 N          -6.8721   13.6425   -0.2202 N.ar    1  UNL1       -0.2855
     23 C          -7.6757   13.1487    0.7768 C.ar    1  UNL1        0.1004
     24 N          -7.1903   13.2987    1.9736 N.ar    1  UNL1       -0.2306
     25 C          -5.9344   13.9578    1.7802 C.ar    1  UNL1        0.1473
     26 C          -4.9009   14.3919    2.7158 C.ar    1  UNL1        0.1472
     27 N          -5.0501   14.3021    4.0517 N.pl3   1  UNL1       -0.3413
     28 N          -3.7886   14.9696    2.1903 N.ar    1  UNL1       -0.2188
     29 C          -3.7283   15.1195    0.8589 C.ar    1  UNL1        0.1205
     30 N          -4.6055   14.7787   -0.1162 N.ar    1  UNL1       -0.2159
     31 C          -5.7242   14.1767    0.4231 C.ar    1  UNL1        0.1674
     32 H          -4.3489   14.2469   -3.2666 H       1  UNL1        0.0631
     33 H          -5.1118   14.7907   -4.7882 H       1  UNL1        0.0631
     34 H          -6.4781   12.4555   -4.2443 H       1  UNL1        0.0650
     35 H          -7.2280   15.1486   -4.5212 H       1  UNL1        0.0694
     36 H          -6.6447   15.6245   -2.1880 H       1  UNL1        0.0667
     37 H          -8.1014   12.9225   -1.7991 H       1  UNL1        0.0866
     38 H          -8.6279   12.6767    0.5841 H       1  UNL1        0.1030
     39 H          -2.8255   15.5933    0.5027 H       1  UNL1        0.1048
     40 H          -4.9836   13.4037    4.5082 H       1  UNL1        0.1438
     41 H          -5.2287   15.1334    4.5968 H       1  UNL1        0.1438
     42 H          -8.9268   15.4419   -1.1345 H       1  UNL1        0.2101
@<TRIPOS>BOND
     1     1     2    1
     2     1     3    1
     3     1     4    1
     4     1     8    1
     5     5     6    1
     6     5     7    1
     7     5     8    1
     8     5     9    1
     9     9    10    1
    10    10    11    1
    11    11    12    1
    12    11    13    1
    13    12    21    1
    14    13    14    1
    15    13    19    1
    16    14    15    1
    17    15    16    1
    18    15    17    1
    19    15    18    1
    20    19    20    1
    21    19    21    1
    22    21    22    1
    23    22    23   ar
    24    22    31   ar
    25    23    24   ar
    26    24    25   ar
    27    25    26   ar
    28    25    31   ar
    29    26    27    1
    30    26    28   ar
    31    28    29   ar
    32    29    30   ar
    33    30    31   ar
    34    32    10    1
    35    33    10    1
    36    11    34    1
    37    13    35    1
    38    19    36    1
    39    21    37    1
    40    38    23    1
    41    39    29    1
    42    40    27    1
    43    41    27    1
    44    42    20    1
@<TRIPOS>SUBSTRUCTURE
     1 UNL1        1 TEMP              0 ****  ****    0 ROOT

########## Name:	16	2733.81  0.325165
@<TRIPOS>MOLECULE
af2_protein.mol216	
 42 44 1 0 0
SMALL
GASTEIGER


@<TRIPOS>ATOM
      1 P          -1.7258   10.8372   -4.2270 P.3     1  UNL1        0.0544
      2 O          -1.2098    9.4760   -3.9785 O.co2   1  UNL1       -0.6615
      3 O          -2.3644   11.0298   -5.5731 O.co2   1  UNL1       -0.6615
      4 O          -0.7704   11.9123   -3.8714 O.co2   1  UNL1       -0.6615
      5 P          -4.3599   12.0357   -3.0088 P.3     1  UNL1        0.2491
      6 O          -4.9112   12.1191   -4.3938 O.co2   1  UNL1       -0.6337
      7 O          -4.0798   13.3020   -2.2792 O.co2   1  UNL1       -0.6337
      8 O          -2.9816   11.0216   -3.1788 O.3     1  UNL1       -0.0930
      9 O          -5.4125   11.1505   -2.1376 O.3     1  UNL1       -0.2057
     10 C          -6.7948   11.4480   -2.1490 C.3     1  UNL1        0.1232
     11 C          -6.9032   12.8810   -1.7175 C.3     1  UNL1        0.1214
     12 O          -7.1367   13.6307   -2.9144 O.3     1  UNL1       -0.3453
     13 C          -8.1129   13.1475   -0.7806 C.3     1  UNL1        0.1593
     14 O          -7.7715   14.2056    0.1605 O.3     1  UNL1       -0.2421
     15 P          -6.5094   13.9958    1.2917 P.3     1  UNL1       -0.0004
     16 O          -7.1786   14.4480    2.5367 O.co2   1  UNL1       -0.6646
     17 O          -6.2432   12.5369    1.2117 O.co2   1  UNL1       -0.6646
     18 O          -5.3656   14.8227    0.8000 O.co2   1  UNL1       -0.6646
     19 C          -9.1603   13.6144   -1.7843 C.3     1  UNL1        0.1329
     20 O         -10.2021   14.3710   -1.1287 O.3     1  UNL1       -0.3845
     21 C          -8.2150   14.5040   -2.6157 C.3     1  UNL1        0.1668
     22 N          -8.7070   14.9440   -3.9406 N.ar    1  UNL1       -0.2855
     23 C          -8.9377   16.2624   -4.2445 C.ar    1  UNL1        0.1004
     24 N          -9.3776   16.4601   -5.4519 N.ar    1  UNL1       -0.2306
     25 C          -9.4564   15.1538   -6.0322 C.ar    1  UNL1        0.1473
     26 C          -9.8581   14.6929   -7.3581 C.ar    1  UNL1        0.1472
     27 N         -10.3546   15.5251   -8.2940 N.pl3   1  UNL1       -0.3413
     28 N          -9.7835   13.3579   -7.6019 N.ar    1  UNL1       -0.2188
     29 C          -9.3695   12.5601   -6.6066 C.ar    1  UNL1        0.1205
     30 N          -8.9812   12.8450   -5.3400 N.ar    1  UNL1       -0.2159
     31 C          -9.0424   14.2035   -5.1051 C.ar    1  UNL1        0.1674
     32 H          -7.2027   11.3209   -3.1519 H       1  UNL1        0.0631
     33 H          -7.3223   10.8038   -1.4456 H       1  UNL1        0.0631
     34 H          -5.9773   13.2049   -1.2421 H       1  UNL1        0.0650
     35 H          -8.4283   12.2400   -0.2658 H       1  UNL1        0.0694
     36 H          -9.5625   12.7874   -2.3692 H       1  UNL1        0.0667
     37 H          -7.8710   15.3559   -2.0290 H       1  UNL1        0.0866
     38 H          -8.7686   17.0653   -3.5422 H       1  UNL1        0.1030
     39 H          -9.3408   11.5101   -6.8578 H       1  UNL1        0.1048
     40 H          -9.7401   16.1616   -8.7812 H       1  UNL1        0.1438
     41 H         -11.3415   15.5127   -8.5082 H       1  UNL1        0.1438
     42 H         -10.5674   15.0120   -1.7429 H       1  UNL1        0.2101
@<TRIPOS>BOND
     1     1     2    1
     2     1     3    1
     3     1     4    1
     4     1     8    1
     5     5     6    1
     6     5     7    1
     7     5     8    1
     8     5     9    1
     9     9    10    1
    10    10    11    1
    11    11    12    1
    12    11    13    1
    13    12    21    1
    14    13    14    1
    15    13    19    1
    16    14    15    1
    17    15    16    1
    18    15    17    1
    19    15    18    1
    20    19    20    1
    21    19    21    1
    22    21    22    1
    23    22    23   ar
    24    22    31   ar
    25    23    24   ar
    26    24    25   ar
    27    25    26   ar
    28    25    31   ar
    29    26    27    1
    30    26    28   ar
    31    28    29   ar
    32    29    30   ar
    33    30    31   ar
    34    32    10    1
    35    33    10    1
    36    11    34    1
    37    13    35    1
    38    19    36    1
    39    21    37    1
    40    38    23    1
    41    39    29    1
    42    40    27    1
    43    41    27    1
    44    42    20    1
@<TRIPOS>SUBSTRUCTURE
     1 UNL1        1 TEMP              0 ****  ****    0 ROOT

########## Name:	17	2508.22  0.311859
@<TRIPOS>MOLECULE
af2_protein.mol217	
 42 44 1 0 0
SMALL
GASTEIGER


@<TRIPOS>ATOM
      1 P         -11.1413   18.3957   -2.2285 P.3     1  UNL1        0.0544
      2 O         -12.5305   18.5054   -1.7394 O.co2   1  UNL1       -0.6615
      3 O         -10.0902   18.7541   -1.2167 O.co2   1  UNL1       -0.6615
      4 O         -10.9221   19.0261   -3.5511 O.co2   1  UNL1       -0.6615
      5 P          -9.5652   15.7122   -2.6452 P.3     1  UNL1        0.2491
      6 O          -8.6199   16.1517   -1.5764 O.co2   1  UNL1       -0.6337
      7 O          -9.0584   15.6047   -4.0402 O.co2   1  UNL1       -0.6337
      8 O         -10.8971   16.7872   -2.4791 O.3     1  UNL1       -0.0930
      9 O         -10.1506   14.2638   -2.1870 O.3     1  UNL1       -0.2057
     10 C          -9.2816   13.2262   -1.7778 C.3     1  UNL1        0.1232
     11 C          -8.3335   13.0184   -2.9222 C.3     1  UNL1        0.1214
     12 O          -7.1115   13.6553   -2.5350 O.3     1  UNL1       -0.3453
     13 C          -7.9974   11.5231   -3.1738 C.3     1  UNL1        0.1593
     14 O          -7.7736   11.3110   -4.5975 O.3     1  UNL1       -0.2421
     15 P          -9.0278   11.5690   -5.7276 P.3     1  UNL1       -0.0004
     16 O          -8.9385   10.3213   -6.5263 O.co2   1  UNL1       -0.6646
     17 O         -10.2276   11.6786   -4.8592 O.co2   1  UNL1       -0.6646
     18 O          -8.7008   12.8468   -6.4304 O.co2   1  UNL1       -0.6646
     19 C          -6.7038   11.3789   -2.3814 C.3     1  UNL1        0.1329
     20 O          -5.9435   10.2381   -2.8378 O.3     1  UNL1       -0.3845
     21 C          -6.0836   12.7195   -2.8220 C.3     1  UNL1        0.1668
     22 N          -4.9208   13.2038   -2.0445 N.ar    1  UNL1       -0.2855
     23 C          -3.6706   13.3459   -2.5928 C.ar    1  UNL1        0.1004
     24 N          -2.7700   13.7733   -1.7582 N.ar    1  UNL1       -0.2306
     25 C          -3.4676   13.9407   -0.5195 C.ar    1  UNL1        0.1473
     26 C          -3.0335   14.4049    0.7950 C.ar    1  UNL1        0.1472
     27 N          -1.7455   14.6837    1.0751 N.pl3   1  UNL1       -0.3413
     28 N          -3.9762   14.4798    1.7712 N.ar    1  UNL1       -0.2188
     29 C          -5.2268   14.1034    1.4664 C.ar    1  UNL1        0.1205
     30 N          -5.7623   13.6478    0.3080 N.ar    1  UNL1       -0.2159
     31 C          -4.8036   13.5913   -0.6832 C.ar    1  UNL1        0.1674
     32 H          -8.7362   13.5187   -0.8805 H       1  UNL1        0.0631
     33 H          -9.8489   12.3145   -1.5909 H       1  UNL1        0.0631
     34 H          -8.7283   13.4759   -3.8295 H       1  UNL1        0.0650
     35 H          -8.7780   10.8669   -2.7890 H       1  UNL1        0.0694
     36 H          -6.8846   11.3459   -1.3071 H       1  UNL1        0.0667
     37 H          -5.8578   12.7087   -3.8882 H       1  UNL1        0.0866
     38 H          -3.4540   13.1224   -3.6270 H       1  UNL1        0.1030
     39 H          -5.9275   14.1758    2.2850 H       1  UNL1        0.1048
     40 H          -1.3221   15.5280    0.7175 H       1  UNL1        0.1438
     41 H          -1.2032   14.0481    1.6426 H       1  UNL1        0.1438
     42 H          -5.0076   10.3999   -2.6975 H       1  UNL1        0.2101
@<TRIPOS>BOND
     1     1     2    1
     2     1     3    1
     3     1     4    1
     4     1     8    1
     5     5     6    1
     6     5     7    1
     7     5     8    1
     8     5     9    1
     9     9    10    1
    10    10    11    1
    11    11    12    1
    12    11    13    1
    13    12    21    1
    14    13    14    1
    15    13    19    1
    16    14    15    1
    17    15    16    1
    18    15    17    1
    19    15    18    1
    20    19    20    1
    21    19    21    1
    22    21    22    1
    23    22    23   ar
    24    22    31   ar
    25    23    24   ar
    26    24    25   ar
    27    25    26   ar
    28    25    31   ar
    29    26    27    1
    30    26    28   ar
    31    28    29   ar
    32    29    30   ar
    33    30    31   ar
    34    32    10    1
    35    33    10    1
    36    11    34    1
    37    13    35    1
    38    19    36    1
    39    21    37    1
    40    38    23    1
    41    39    29    1
    42    40    27    1
    43    41    27    1
    44    42    20    1
@<TRIPOS>SUBSTRUCTURE
     1 UNL1        1 TEMP              0 ****  ****    0 ROOT

########## Name:	18	2720.01  0.334857
@<TRIPOS>MOLECULE
af2_protein.mol218	
 42 44 1 0 0
SMALL
GASTEIGER


@<TRIPOS>ATOM
      1 P          -0.8779   10.3280   -3.7467 P.3     1  UNL1        0.0544
      2 O          -0.3713    9.0434   -3.2231 O.co2   1  UNL1       -0.6615
      3 O          -1.2839   10.2994   -5.1928 O.co2   1  UNL1       -0.6615
      4 O          -0.0295   11.4914   -3.3981 O.co2   1  UNL1       -0.6615
      5 P          -3.7154   11.5391   -3.1631 P.3     1  UNL1        0.2491
      6 O          -4.0255   11.4019   -4.6171 O.co2   1  UNL1       -0.6337
      7 O          -3.6015   12.9068   -2.5880 O.co2   1  UNL1       -0.6337
      8 O          -2.2987   10.5867   -2.9565 O.3     1  UNL1       -0.0930
      9 O          -4.8739   10.7266   -2.3579 O.3     1  UNL1       -0.2057
     10 C          -6.2424   10.9450   -2.6388 C.3     1  UNL1        0.1232
     11 C          -6.4654   12.4158   -2.4423 C.3     1  UNL1        0.1214
     12 O          -6.5143   12.9805   -3.7568 O.3     1  UNL1       -0.3453
     13 C          -7.8242   12.7430   -1.7651 C.3     1  UNL1        0.1593
     14 O          -7.6796   13.9371   -0.9434 O.3     1  UNL1       -0.2421
     15 P          -6.6225   13.9526    0.3979 P.3     1  UNL1       -0.0004
     16 O          -7.5069   14.5348    1.4377 O.co2   1  UNL1       -0.6646
     17 O          -6.3031   12.5130    0.5741 O.co2   1  UNL1       -0.6646
     18 O          -5.4370   14.7644   -0.0136 O.co2   1  UNL1       -0.6646
     19 C          -8.6991   13.0108   -2.9837 C.3     1  UNL1        0.1329
     20 O          -9.8595   13.7932   -2.6241 O.3     1  UNL1       -0.3845
     21 C          -7.6533   13.8273   -3.7683 C.3     1  UNL1        0.1668
     22 N          -7.9257   14.0542   -5.2055 N.ar    1  UNL1       -0.2855
     23 C          -8.1408   15.3041   -5.7301 C.ar    1  UNL1        0.1004
     24 N          -8.3747   15.3103   -7.0090 N.ar    1  UNL1       -0.2306
     25 C          -8.3145   13.9344   -7.3997 C.ar    1  UNL1        0.1473
     26 C          -8.4710   13.2750   -8.6929 C.ar    1  UNL1        0.1472
     27 N          -8.8258   13.9430   -9.8078 N.pl3   1  UNL1       -0.3413
     28 N          -8.3161   11.9251   -8.7260 N.ar    1  UNL1       -0.2188
     29 C          -8.0537   11.2948   -7.5716 C.ar    1  UNL1        0.1205
     30 N          -7.8951   11.7713   -6.3130 N.ar    1  UNL1       -0.2159
     31 C          -8.0360   13.1440   -6.2900 C.ar    1  UNL1        0.1674
     32 H          -6.4698   10.6598   -3.6660 H       1  UNL1        0.0631
     33 H          -6.8623   10.3761   -1.9460 H       1  UNL1        0.0631
     34 H          -5.6439   12.8512   -1.8733 H       1  UNL1        0.0650
     35 H          -8.1953   11.8992   -1.1834 H       1  UNL1        0.0694
     36 H          -8.9711   12.0909   -3.5011 H       1  UNL1        0.0667
     37 H          -7.4397   14.7689   -3.2623 H       1  UNL1        0.0866
     38 H          -8.1176   16.2037   -5.1329 H       1  UNL1        0.1030
     39 H          -7.9514   10.2234   -7.6604 H       1  UNL1        0.1048
     40 H          -8.1567   14.5386  -10.2743 H       1  UNL1        0.1438
     41 H          -9.7611   13.8483  -10.1770 H       1  UNL1        0.1438
     42 H         -10.1340   14.3232   -3.3759 H       1  UNL1        0.2101
@<TRIPOS>BOND
     1     1     2    1
     2     1     3    1
     3     1     4    1
     4     1     8    1
     5     5     6    1
     6     5     7    1
     7     5     8    1
     8     5     9    1
     9     9    10    1
    10    10    11    1
    11    11    12    1
    12    11    13    1
    13    12    21    1
    14    13    14    1
    15    13    19    1
    16    14    15    1
    17    15    16    1
    18    15    17    1
    19    15    18    1
    20    19    20    1
    21    19    21    1
    22    21    22    1
    23    22    23   ar
    24    22    31   ar
    25    23    24   ar
    26    24    25   ar
    27    25    26   ar
    28    25    31   ar
    29    26    27    1
    30    26    28   ar
    31    28    29   ar
    32    29    30   ar
    33    30    31   ar
    34    32    10    1
    35    33    10    1
    36    11    34    1
    37    13    35    1
    38    19    36    1
    39    21    37    1
    40    38    23    1
    41    39    29    1
    42    40    27    1
    43    41    27    1
    44    42    20    1
@<TRIPOS>SUBSTRUCTURE
     1 UNL1        1 TEMP              0 ****  ****    0 ROOT

########## Name:	19	2652.59  0.302489
@<TRIPOS>MOLECULE
af2_protein.mol219	
 42 44 1 0 0
SMALL
GASTEIGER


@<TRIPOS>ATOM
      1 P          -0.8422   11.5172   -4.9723 P.3     1  UNL1        0.0544
      2 O           0.1887   10.5188   -4.6237 O.co2   1  UNL1       -0.6615
      3 O          -1.6900   11.1552   -6.1585 O.co2   1  UNL1       -0.6615
      4 O          -0.3357   12.9087   -5.0156 O.co2   1  UNL1       -0.6615
      5 P          -3.5326   11.9736   -3.4192 P.3     1  UNL1        0.2491
      6 O          -4.2642   11.5338   -4.6441 O.co2   1  UNL1       -0.6337
      7 O          -3.6623   13.3913   -2.9860 O.co2   1  UNL1       -0.6337
      8 O          -1.9091   11.4926   -3.7189 O.3     1  UNL1       -0.0930
      9 O          -4.0267   11.0073   -2.2056 O.3     1  UNL1       -0.2057
     10 C          -5.4031   10.7938   -1.9623 C.3     1  UNL1        0.1232
     11 C          -5.9936   12.1581   -1.7579 C.3     1  UNL1        0.1214
     12 O          -6.6659   12.4777   -2.9806 O.3     1  UNL1       -0.3453
     13 C          -7.0660   12.1980   -0.6352 C.3     1  UNL1        0.1593
     14 O          -7.0294   13.4975    0.0221 O.3     1  UNL1       -0.2421
     15 P          -5.6371   14.0105    0.8678 P.3     1  UNL1       -0.0004
     16 O          -6.2448   14.4792    2.1381 O.co2   1  UNL1       -0.6646
     17 O          -4.8429   12.7598    0.9712 O.co2   1  UNL1       -0.6646
     18 O          -4.9835   15.0443    0.0088 O.co2   1  UNL1       -0.6646
     19 C          -8.3435   12.0231   -1.4473 C.3     1  UNL1        0.1329
     20 O          -9.4920   12.5007   -0.7121 O.3     1  UNL1       -0.3845
     21 C          -7.9433   12.9653   -2.5998 C.3     1  UNL1        0.1668
     22 N          -8.7498   12.8839   -3.8383 N.ar    1  UNL1       -0.2855
     23 C          -9.5121   13.9296   -4.2957 C.ar    1  UNL1        0.1004
     24 N         -10.1609   13.6739   -5.3930 N.ar    1  UNL1       -0.2306
     25 C          -9.8111   12.3249   -5.7202 C.ar    1  UNL1        0.1473
     26 C         -10.1879   11.4567   -6.8320 C.ar    1  UNL1        0.1472
     27 N         -11.0946   11.8209   -7.7595 N.pl3   1  UNL1       -0.3413
     28 N          -9.6394   10.2137   -6.8645 N.ar    1  UNL1       -0.2188
     29 C          -8.8127    9.8659   -5.8674 C.ar    1  UNL1        0.1205
     30 N          -8.3887   10.5557   -4.7808 N.ar    1  UNL1       -0.2159
     31 C          -8.9353   11.8228   -4.7638 C.ar    1  UNL1        0.1674
     32 H          -5.8684   10.3021   -2.8167 H       1  UNL1        0.0631
     33 H          -5.5354   10.1898   -1.0647 H       1  UNL1        0.0631
     34 H          -5.2070   12.8853   -1.5566 H       1  UNL1        0.0650
     35 H          -6.9301   11.3848    0.0777 H       1  UNL1        0.0694
     36 H          -8.4741   10.9955   -1.7865 H       1  UNL1        0.0667
     37 H          -7.8751   13.9955   -2.2503 H       1  UNL1        0.0866
     38 H          -9.5679   14.8816   -3.7886 H       1  UNL1        0.1030
     39 H          -8.4171    8.8639   -5.9435 H       1  UNL1        0.1048
     40 H         -10.8493   12.4987   -8.4670 H       1  UNL1        0.1438
     41 H         -12.0199   11.4162   -7.7472 H       1  UNL1        0.1438
     42 H         -10.1596   12.8121   -1.3277 H       1  UNL1        0.2101
@<TRIPOS>BOND
     1     1     2    1
     2     1     3    1
     3     1     4    1
     4     1     8    1
     5     5     6    1
     6     5     7    1
     7     5     8    1
     8     5     9    1
     9     9    10    1
    10    10    11    1
    11    11    12    1
    12    11    13    1
    13    12    21    1
    14    13    14    1
    15    13    19    1
    16    14    15    1
    17    15    16    1
    18    15    17    1
    19    15    18    1
    20    19    20    1
    21    19    21    1
    22    21    22    1
    23    22    23   ar
    24    22    31   ar
    25    23    24   ar
    26    24    25   ar
    27    25    26   ar
    28    25    31   ar
    29    26    27    1
    30    26    28   ar
    31    28    29   ar
    32    29    30   ar
    33    30    31   ar
    34    32    10    1
    35    33    10    1
    36    11    34    1
    37    13    35    1
    38    19    36    1
    39    21    37    1
    40    38    23    1
    41    39    29    1
    42    40    27    1
    43    41    27    1
    44    42    20    1
@<TRIPOS>SUBSTRUCTURE
     1 UNL1        1 TEMP              0 ****  ****    0 ROOT

########## Name:	0	2407.28  0.315928
@<TRIPOS>MOLECULE
af2_protein.mol20	
 42 44 1 0 0
SMALL
GASTEIGER


@<TRIPOS>ATOM
      1 P         -12.1600   16.8526   -0.3053 P.3     1  UNL1        0.0544
      2 O         -13.4320   16.1135   -0.1757 O.co2   1  UNL1       -0.6615
      3 O         -11.2793   16.8031    0.9108 O.co2   1  UNL1       -0.6615
      4 O         -12.3159   18.2167   -0.8620 O.co2   1  UNL1       -0.6615
      5 P          -9.6541   15.8911   -1.9346 P.3     1  UNL1        0.2491
      6 O          -8.8988   15.8209   -0.6486 O.co2   1  UNL1       -0.6337
      7 O          -9.2502   16.9114   -2.9397 O.co2   1  UNL1       -0.6337
      8 O         -11.2944   16.0285   -1.4373 O.3     1  UNL1       -0.0930
      9 O          -9.5569   14.4161   -2.6167 O.3     1  UNL1       -0.2057
     10 C          -8.3109   13.7633   -2.7599 C.3     1  UNL1        0.1232
     11 C          -7.4468   14.7092   -3.5411 C.3     1  UNL1        0.1214
     12 O          -6.5705   15.3148   -2.5849 O.3     1  UNL1       -0.3453
     13 C          -6.5444   13.9938   -4.5833 C.3     1  UNL1        0.1593
     14 O          -6.3567   14.8627   -5.7374 O.3     1  UNL1       -0.2421
     15 P          -7.6840   15.3294   -6.7053 P.3     1  UNL1       -0.0004
     16 O          -7.1473   15.0499   -8.0604 O.co2   1  UNL1       -0.6646
     17 O          -8.7564   14.4092   -6.2484 O.co2   1  UNL1       -0.6646
     18 O          -7.9635   16.7589   -6.3702 O.co2   1  UNL1       -0.6646
     19 C          -5.2523   13.8379   -3.7904 C.3     1  UNL1        0.1329
     20 O          -4.1252   13.6438   -4.6734 O.3     1  UNL1       -0.3845
     21 C          -5.2723   15.2418   -3.1541 C.3     1  UNL1        0.1668
     22 N          -4.3588   15.4692   -2.0117 N.ar    1  UNL1       -0.2855
     23 C          -3.3211   16.3661   -2.0605 C.ar    1  UNL1        0.1004
     24 N          -2.6183   16.4252   -0.9683 N.ar    1  UNL1       -0.2306
     25 C          -3.2314   15.4794   -0.0858 C.ar    1  UNL1        0.1473
     26 C          -2.9330   15.0837    1.2876 C.ar    1  UNL1        0.1472
     27 N          -1.8572   15.5435    1.9557 N.pl3   1  UNL1       -0.3413
     28 N          -3.7497   14.1610    1.8609 N.ar    1  UNL1       -0.2188
     29 C          -4.7532   13.6654    1.1220 C.ar    1  UNL1        0.1205
     30 N          -5.1360   13.9288   -0.1510 N.ar    1  UNL1       -0.2159
     31 C          -4.3134   14.8793   -0.7207 C.ar    1  UNL1        0.1674
     32 H          -7.8709   13.5653   -1.7825 H       1  UNL1        0.0631
     33 H          -8.4377   12.8307   -3.3096 H       1  UNL1        0.0631
     34 H          -8.0593   15.4682   -4.0278 H       1  UNL1        0.0650
     35 H          -6.9557   13.0269   -4.8727 H       1  UNL1        0.0694
     36 H          -5.3254   13.0491   -3.0418 H       1  UNL1        0.0667
     37 H          -5.1398   16.0120   -3.9139 H       1  UNL1        0.0866
     38 H          -3.1071   16.9700   -2.9300 H       1  UNL1        0.1030
     39 H          -5.3604   12.9299    1.6285 H       1  UNL1        0.1048
     40 H          -1.8457   16.4917    2.3033 H       1  UNL1        0.1438
     41 H          -1.0620   14.9400    2.1087 H       1  UNL1        0.1438
     42 H          -3.3314   13.9921   -4.2608 H       1  UNL1        0.2101
@<TRIPOS>BOND
     1     1     2    1
     2     1     3    1
     3     1     4    1
     4     1     8    1
     5     5     6    1
     6     5     7    1
     7     5     8    1
     8     5     9    1
     9     9    10    1
    10    10    11    1
    11    11    12    1
    12    11    13    1
    13    12    21    1
    14    13    14    1
    15    13    19    1
    16    14    15    1
    17    15    16    1
    18    15    17    1
    19    15    18    1
    20    19    20    1
    21    19    21    1
    22    21    22    1
    23    22    23   ar
    24    22    31   ar
    25    23    24   ar
    26    24    25   ar
    27    25    26   ar
    28    25    31   ar
    29    26    27    1
    30    26    28   ar
    31    28    29   ar
    32    29    30   ar
    33    30    31   ar
    34    32    10    1
    35    33    10    1
    36    11    34    1
    37    13    35    1
    38    19    36    1
    39    21    37    1
    40    38    23    1
    41    39    29    1
    42    40    27    1
    43    41    27    1
    44    42    20    1
@<TRIPOS>SUBSTRUCTURE
     1 UNL1        1 TEMP              0 ****  ****    0 ROOT

########## Name:	1	2909.34  0.33226
@<TRIPOS>MOLECULE
af2_protein.mol21	
 42 44 1 0 0
SMALL
GASTEIGER


@<TRIPOS>ATOM
      1 P           0.0594   11.2069   -0.5922 P.3     1  UNL1        0.0544
      2 O           1.4624   11.6488   -0.4606 O.co2   1  UNL1       -0.6615
      3 O          -0.7216   11.2085    0.6911 O.co2   1  UNL1       -0.6615
      4 O          -0.1033    9.9608   -1.3768 O.co2   1  UNL1       -0.6615
      5 P          -2.2802   12.9139   -1.8053 P.3     1  UNL1        0.2491
      6 O          -2.9305   12.8985   -0.4614 O.co2   1  UNL1       -0.6337
      7 O          -2.9434   12.1885   -2.9225 O.co2   1  UNL1       -0.6337
      8 O          -0.6788   12.3730   -1.4897 O.3     1  UNL1       -0.0930
      9 O          -2.1073   14.4774   -2.2247 O.3     1  UNL1       -0.2057
     10 C          -3.1966   15.3753   -2.1442 C.3     1  UNL1        0.1232
     11 C          -4.2812   14.7712   -2.9871 C.3     1  UNL1        0.1214
     12 O          -5.2086   14.1867   -2.0667 O.3     1  UNL1       -0.3453
     13 C          -5.0728   15.8234   -3.8108 C.3     1  UNL1        0.1593
     14 O          -5.5018   15.2287   -5.0695 O.3     1  UNL1       -0.2421
     15 P          -4.3573   14.6933   -6.2184 P.3     1  UNL1       -0.0004
     16 O          -4.8999   15.3100   -7.4544 O.co2   1  UNL1       -0.6646
     17 O          -3.0930   15.2901   -5.7173 O.co2   1  UNL1       -0.6646
     18 O          -4.3623   13.2003   -6.1490 O.co2   1  UNL1       -0.6646
     19 C          -6.2573   16.0835   -2.8880 C.3     1  UNL1        0.1329
     20 O          -7.3676   16.6483   -3.6201 O.3     1  UNL1       -0.3845
     21 C          -6.4934   14.6119   -2.4948 C.3     1  UNL1        0.1668
     22 N          -7.3680   14.3660   -1.3262 N.ar    1  UNL1       -0.2855
     23 C          -8.5705   13.7119   -1.4258 C.ar    1  UNL1        0.1004
     24 N          -9.2073   13.5963   -0.2982 N.ar    1  UNL1       -0.2306
     25 C          -8.3622   14.2310    0.6672 C.ar    1  UNL1        0.1473
     26 C          -8.4938   14.4248    2.1084 C.ar    1  UNL1        0.1472
     27 N          -9.6021   14.0714    2.7880 N.pl3   1  UNL1       -0.3413
     28 N          -7.4721   15.0530    2.7477 N.ar    1  UNL1       -0.2188
     29 C          -6.4310   15.4678    2.0111 C.ar    1  UNL1        0.1205
     30 N          -6.1839   15.3671    0.6825 N.ar    1  UNL1       -0.2159
     31 C          -7.2168   14.7127    0.0427 C.ar    1  UNL1        0.1674
     32 H          -3.5299   15.4770   -1.1114 H       1  UNL1        0.0631
     33 H          -2.9101   16.3484   -2.5430 H       1  UNL1        0.0631
     34 H          -3.8682   14.0071   -3.6457 H       1  UNL1        0.0650
     35 H          -4.4865   16.7276   -3.9745 H       1  UNL1        0.0694
     36 H          -5.9797   16.6960   -2.0302 H       1  UNL1        0.0667
     37 H          -6.8258   14.0309   -3.3551 H       1  UNL1        0.0866
     38 H          -8.9541   13.3268   -2.3591 H       1  UNL1        0.1030
     39 H          -5.6565   15.9682    2.5734 H       1  UNL1        0.1048
     40 H          -9.7906   13.0970    2.9752 H       1  UNL1        0.1438
     41 H         -10.2446   14.7809    3.1101 H       1  UNL1        0.1438
     42 H          -8.1918   16.3932   -3.1991 H       1  UNL1        0.2101
@<TRIPOS>BOND
     1     1     2    1
     2     1     3    1
     3     1     4    1
     4     1     8    1
     5     5     6    1
     6     5     7    1
     7     5     8    1
     8     5     9    1
     9     9    10    1
    10    10    11    1
    11    11    12    1
    12    11    13    1
    13    12    21    1
    14    13    14    1
    15    13    19    1
    16    14    15    1
    17    15    16    1
    18    15    17    1
    19    15    18    1
    20    19    20    1
    21    19    21    1
    22    21    22    1
    23    22    23   ar
    24    22    31   ar
    25    23    24   ar
    26    24    25   ar
    27    25    26   ar
    28    25    31   ar
    29    26    27    1
    30    26    28   ar
    31    28    29   ar
    32    29    30   ar
    33    30    31   ar
    34    32    10    1
    35    33    10    1
    36    11    34    1
    37    13    35    1
    38    19    36    1
    39    21    37    1
    40    38    23    1
    41    39    29    1
    42    40    27    1
    43    41    27    1
    44    42    20    1
@<TRIPOS>SUBSTRUCTURE
     1 UNL1        1 TEMP              0 ****  ****    0 ROOT

########## Name:	2	3354.48  0.323898
@<TRIPOS>MOLECULE
af2_protein.mol22	
 42 44 1 0 0
SMALL
GASTEIGER


@<TRIPOS>ATOM
      1 P          -2.3628   17.7571   -4.6057 P.3     1  UNL1        0.0544
      2 O          -1.2874   17.6648   -5.6136 O.co2   1  UNL1       -0.6615
      3 O          -3.7534   17.6236   -5.1584 O.co2   1  UNL1       -0.6615
      4 O          -2.2095   18.8965   -3.6713 O.co2   1  UNL1       -0.6615
      5 P          -3.1505   15.4978   -2.5725 P.3     1  UNL1        0.2491
      6 O          -4.4799   15.4141   -3.2469 O.co2   1  UNL1       -0.6337
      7 O          -3.0956   15.9998   -1.1727 O.co2   1  UNL1       -0.6337
      8 O          -2.1938   16.4141   -3.6689 O.3     1  UNL1       -0.0930
      9 O          -2.5060   14.0036   -2.6193 O.3     1  UNL1       -0.2057
     10 C          -3.2518   12.8779   -2.1998 C.3     1  UNL1        0.1232
     11 C          -3.6711   13.1739   -0.7898 C.3     1  UNL1        0.1214
     12 O          -5.0474   13.5600   -0.8665 O.3     1  UNL1       -0.3453
     13 C          -3.6072   11.9317    0.1404 C.3     1  UNL1        0.1593
     14 O          -3.2634   12.3564    1.4908 O.3     1  UNL1       -0.2421
     15 P          -1.7608   13.0995    1.8176 P.3     1  UNL1       -0.0004
     16 O          -1.3223   12.3221    3.0032 O.co2   1  UNL1       -0.6646
     17 O          -0.9941   12.8391    0.5726 O.co2   1  UNL1       -0.6646
     18 O          -2.0494   14.5506    2.0292 O.co2   1  UNL1       -0.6646
     19 C          -5.0466   11.4372    0.0641 C.3     1  UNL1        0.1329
     20 O          -5.3643   10.5968    1.1956 O.3     1  UNL1       -0.3845
     21 C          -5.7090   12.8263    0.1526 C.3     1  UNL1        0.1668
     22 N          -7.1417   12.9062   -0.2108 N.ar    1  UNL1       -0.2855
     23 C          -8.1163   13.2533    0.6912 C.ar    1  UNL1        0.1004
     24 N          -9.3188   13.2612    0.1971 N.ar    1  UNL1       -0.2306
     25 C          -9.1547   12.8840   -1.1740 C.ar    1  UNL1        0.1473
     26 C         -10.1089   12.7237   -2.2675 C.ar    1  UNL1        0.1472
     27 N         -11.4397   12.8329   -2.0886 N.pl3   1  UNL1       -0.3413
     28 N          -9.6093   12.3812   -3.4842 N.ar    1  UNL1       -0.2188
     29 C          -8.2855   12.1942   -3.5893 C.ar    1  UNL1        0.1205
     30 N          -7.2959   12.2960   -2.6690 N.ar    1  UNL1       -0.2159
     31 C          -7.8082   12.6613   -1.4407 C.ar    1  UNL1        0.1674
     32 H          -4.1264   12.7427   -2.8362 H       1  UNL1        0.0631
     33 H          -2.6279   11.9846   -2.2256 H       1  UNL1        0.0631
     34 H          -3.0720   13.9863   -0.3786 H       1  UNL1        0.0650
     35 H          -2.9071   11.1856   -0.2352 H       1  UNL1        0.0694
     36 H          -5.2588   10.9432   -0.8840 H       1  UNL1        0.0667
     37 H          -5.5326   13.2767    1.1294 H       1  UNL1        0.0866
     38 H          -7.9028   13.4984    1.7212 H       1  UNL1        0.1030
     39 H          -7.9505   11.9143   -4.5771 H       1  UNL1        0.1048
     40 H         -11.8583   13.7421   -1.9534 H       1  UNL1        0.1438
     41 H         -12.0189   12.0055   -2.0895 H       1  UNL1        0.1438
     42 H          -6.3010   10.6670    1.3939 H       1  UNL1        0.2101
@<TRIPOS>BOND
     1     1     2    1
     2     1     3    1
     3     1     4    1
     4     1     8    1
     5     5     6    1
     6     5     7    1
     7     5     8    1
     8     5     9    1
     9     9    10    1
    10    10    11    1
    11    11    12    1
    12    11    13    1
    13    12    21    1
    14    13    14    1
    15    13    19    1
    16    14    15    1
    17    15    16    1
    18    15    17    1
    19    15    18    1
    20    19    20    1
    21    19    21    1
    22    21    22    1
    23    22    23   ar
    24    22    31   ar
    25    23    24   ar
    26    24    25   ar
    27    25    26   ar
    28    25    31   ar
    29    26    27    1
    30    26    28   ar
    31    28    29   ar
    32    29    30   ar
    33    30    31   ar
    34    32    10    1
    35    33    10    1
    36    11    34    1
    37    13    35    1
    38    19    36    1
    39    21    37    1
    40    38    23    1
    41    39    29    1
    42    40    27    1
    43    41    27    1
    44    42    20    1
@<TRIPOS>SUBSTRUCTURE
     1 UNL1        1 TEMP              0 ****  ****    0 ROOT

########## Name:	3	3690.55  0.336365
@<TRIPOS>MOLECULE
af2_protein.mol23	
 42 44 1 0 0
SMALL
GASTEIGER


@<TRIPOS>ATOM
      1 P          -1.7353   18.5510   -3.6937 P.3     1  UNL1        0.0544
      2 O          -0.4139   18.8304   -4.2910 O.co2   1  UNL1       -0.6615
      3 O          -2.7720   18.0626   -4.6651 O.co2   1  UNL1       -0.6615
      4 O          -2.2272   19.6270   -2.8020 O.co2   1  UNL1       -0.6615
      5 P          -2.4500   16.0399   -1.9495 P.3     1  UNL1        0.2491
      6 O          -3.4066   15.6240   -3.0177 O.co2   1  UNL1       -0.6337
      7 O          -2.9970   16.4493   -0.6276 O.co2   1  UNL1       -0.6337
      8 O          -1.4980   17.2560   -2.7055 O.3     1  UNL1       -0.0930
      9 O          -1.4230   14.7961   -1.7295 O.3     1  UNL1       -0.2057
     10 C          -1.9060   13.4812   -1.5365 C.3     1  UNL1        0.1232
     11 C          -2.8245   13.5582   -0.3523 C.3     1  UNL1        0.1214
     12 O          -4.1517   13.5416   -0.8882 O.3     1  UNL1       -0.3453
     13 C          -2.7088   12.3303    0.5917 C.3     1  UNL1        0.1593
     14 O          -2.9571   12.7508    1.9642 O.3     1  UNL1       -0.2421
     15 P          -1.9224   13.8683    2.7369 P.3     1  UNL1       -0.0004
     16 O          -1.6855   13.1758    4.0279 O.co2   1  UNL1       -0.6646
     17 O          -0.7543   13.9139    1.8208 O.co2   1  UNL1       -0.6646
     18 O          -2.6693   15.1618    2.7904 O.co2   1  UNL1       -0.6646
     19 C          -3.8392   11.4532    0.0673 C.3     1  UNL1        0.1329
     20 O          -4.2484   10.4888    1.0624 O.3     1  UNL1       -0.3845
     21 C          -4.8655   12.5887   -0.1154 C.3     1  UNL1        0.1668
     22 N          -6.0629   12.2808   -0.9295 N.ar    1  UNL1       -0.2855
     23 C          -7.3326   12.2803   -0.4083 C.ar    1  UNL1        0.1004
     24 N          -8.2595   11.9770   -1.2680 N.ar    1  UNL1       -0.2306
     25 C          -7.5602   11.7474   -2.4959 C.ar    1  UNL1        0.1473
     26 C          -8.0213   11.3907   -3.8345 C.ar    1  UNL1        0.1472
     27 N          -9.3102   11.1062   -4.1041 N.pl3   1  UNL1       -0.3413
     28 N          -7.0795   11.2800   -4.8082 N.ar    1  UNL1       -0.2188
     29 C          -5.7982   11.4835   -4.4683 C.ar    1  UNL1        0.1205
     30 N          -5.2325   11.8051   -3.2796 N.ar    1  UNL1       -0.2159
     31 C          -6.1961   11.9332   -2.3000 C.ar    1  UNL1        0.1674
     32 H          -2.4501   13.1428   -2.4183 H       1  UNL1        0.0631
     33 H          -1.0777   12.8052   -1.3249 H       1  UNL1        0.0631
     34 H          -2.6514   14.4803    0.2025 H       1  UNL1        0.0650
     35 H          -1.7413   11.8385    0.4925 H       1  UNL1        0.0694
     36 H          -3.5821   10.9788   -0.8797 H       1  UNL1        0.0667
     37 H          -5.1516   13.0094    0.8486 H       1  UNL1        0.0866
     38 H          -7.5432   12.5118    0.6254 H       1  UNL1        0.1030
     39 H          -5.0967   11.3719   -5.2818 H       1  UNL1        0.1048
     40 H          -9.9934   11.8489   -4.1458 H       1  UNL1        0.1438
     41 H          -9.5935   10.1501   -4.2645 H       1  UNL1        0.1438
     42 H          -5.1771   10.2778    0.9412 H       1  UNL1        0.2101
@<TRIPOS>BOND
     1     1     2    1
     2     1     3    1
     3     1     4    1
     4     1     8    1
     5     5     6    1
     6     5     7    1
     7     5     8    1
     8     5     9    1
     9     9    10    1
    10    10    11    1
    11    11    12    1
    12    11    13    1
    13    12    21    1
    14    13    14    1
    15    13    19    1
    16    14    15    1
    17    15    16    1
    18    15    17    1
    19    15    18    1
    20    19    20    1
    21    19    21    1
    22    21    22    1
    23    22    23   ar
    24    22    31   ar
    25    23    24   ar
    26    24    25   ar
    27    25    26   ar
    28    25    31   ar
    29    26    27    1
    30    26    28   ar
    31    28    29   ar
    32    29    30   ar
    33    30    31   ar
    34    32    10    1
    35    33    10    1
    36    11    34    1
    37    13    35    1
    38    19    36    1
    39    21    37    1
    40    38    23    1
    41    39    29    1
    42    40    27    1
    43    41    27    1
    44    42    20    1
@<TRIPOS>SUBSTRUCTURE
     1 UNL1        1 TEMP              0 ****  ****    0 ROOT

########## Name:	4	3426.35  0.323768
@<TRIPOS>MOLECULE
af2_protein.mol24	
 42 44 1 0 0
SMALL
GASTEIGER


@<TRIPOS>ATOM
      1 P          -5.6044    9.9031   -8.9161 P.3     1  UNL1        0.0544
      2 O          -5.1612   10.4945  -10.1946 O.co2   1  UNL1       -0.6615
      3 O          -4.5011    9.6395   -7.9311 O.co2   1  UNL1       -0.6615
      4 O          -6.5332    8.7601   -9.0768 O.co2   1  UNL1       -0.6615
      5 P          -7.0541   11.4508   -6.6005 P.3     1  UNL1        0.2491
      6 O          -5.8685   11.1788   -5.7348 O.co2   1  UNL1       -0.6337
      7 O          -8.3480   10.8015   -6.2559 O.co2   1  UNL1       -0.6337
      8 O          -6.4977   11.0760   -8.1838 O.3     1  UNL1       -0.0930
      9 O          -7.2648   13.0651   -6.6137 O.3     1  UNL1       -0.2057
     10 C          -7.2991   13.8025   -5.4077 C.3     1  UNL1        0.1232
     11 C          -8.3928   13.1843   -4.5872 C.3     1  UNL1        0.1214
     12 O          -7.7337   12.3736   -3.6087 O.3     1  UNL1       -0.3453
     13 C          -9.2363   14.2289   -3.8066 C.3     1  UNL1        0.1593
     14 O         -10.6096   13.7557   -3.6956 O.3     1  UNL1       -0.2421
     15 P         -11.5689   13.5217   -5.0891 P.3     1  UNL1       -0.0004
     16 O         -12.8133   14.2230   -4.6865 O.co2   1  UNL1       -0.6646
     17 O         -10.7751   14.1999   -6.1453 O.co2   1  UNL1       -0.6646
     18 O         -11.6604   12.0435   -5.2902 O.co2   1  UNL1       -0.6646
     19 C          -8.5345   14.2168   -2.4540 C.3     1  UNL1        0.1329
     20 O          -9.4011   14.7306   -1.4183 O.3     1  UNL1       -0.3845
     21 C          -8.3518   12.6885   -2.3704 C.3     1  UNL1        0.1668
     22 N          -7.4045   12.1850   -1.3505 N.ar    1  UNL1       -0.2855
     23 C          -7.8007   11.4055   -0.2926 C.ar    1  UNL1        0.1004
     24 N          -6.8342   11.0650    0.5076 N.ar    1  UNL1       -0.2306
     25 C          -5.6634   11.6676   -0.0539 C.ar    1  UNL1        0.1473
     26 C          -4.2616   11.6530    0.3543 C.ar    1  UNL1        0.1472
     27 N          -3.8476   11.0787    1.5005 N.pl3   1  UNL1       -0.3413
     28 N          -3.3760   12.3138   -0.4371 N.ar    1  UNL1       -0.2188
     29 C          -3.8521   12.9475   -1.5189 C.ar    1  UNL1        0.1205
     30 N          -5.1121   13.0533   -2.0063 N.ar    1  UNL1       -0.2159
     31 C          -6.0031   12.3653   -1.2079 C.ar    1  UNL1        0.1674
     32 H          -6.3441   13.7258   -4.8879 H       1  UNL1        0.0631
     33 H          -7.5305   14.8474   -5.6142 H       1  UNL1        0.0631
     34 H          -9.0376   12.5702   -5.2160 H       1  UNL1        0.0650
     35 H          -9.1882   15.2125   -4.2739 H       1  UNL1        0.0694
     36 H          -7.5795   14.7413   -2.4849 H       1  UNL1        0.0667
     37 H          -9.3163   12.1886   -2.2820 H       1  UNL1        0.0866
     38 H          -8.8255   11.1015   -0.1384 H       1  UNL1        0.1030
     39 H          -3.1024   13.4620   -2.1017 H       1  UNL1        0.1048
     40 H          -3.8041   10.0724    1.5744 H       1  UNL1        0.1438
     41 H          -3.5808   11.6546    2.2861 H       1  UNL1        0.1438
     42 H          -9.1747   14.3222   -0.5795 H       1  UNL1        0.2101
@<TRIPOS>BOND
     1     1     2    1
     2     1     3    1
     3     1     4    1
     4     1     8    1
     5     5     6    1
     6     5     7    1
     7     5     8    1
     8     5     9    1
     9     9    10    1
    10    10    11    1
    11    11    12    1
    12    11    13    1
    13    12    21    1
    14    13    14    1
    15    13    19    1
    16    14    15    1
    17    15    16    1
    18    15    17    1
    19    15    18    1
    20    19    20    1
    21    19    21    1
    22    21    22    1
    23    22    23   ar
    24    22    31   ar
    25    23    24   ar
    26    24    25   ar
    27    25    26   ar
    28    25    31   ar
    29    26    27    1
    30    26    28   ar
    31    28    29   ar
    32    29    30   ar
    33    30    31   ar
    34    32    10    1
    35    33    10    1
    36    11    34    1
    37    13    35    1
    38    19    36    1
    39    21    37    1
    40    38    23    1
    41    39    29    1
    42    40    27    1
    43    41    27    1
    44    42    20    1
@<TRIPOS>SUBSTRUCTURE
     1 UNL1        1 TEMP              0 ****  ****    0 ROOT

########## Name:	5	2676.19  0.333014
@<TRIPOS>MOLECULE
af2_protein.mol25	
 42 44 1 0 0
SMALL
GASTEIGER


@<TRIPOS>ATOM
      1 P         -10.9555   16.3424   -0.5410 P.3     1  UNL1        0.0544
      2 O         -12.1463   15.9532    0.2409 O.co2   1  UNL1       -0.6615
      3 O          -9.8350   16.9264    0.2716 O.co2   1  UNL1       -0.6615
      4 O         -11.2700   17.1280   -1.7571 O.co2   1  UNL1       -0.6615
      5 P          -8.8241   14.3604   -1.7190 P.3     1  UNL1        0.2491
      6 O          -7.8106   14.9815   -0.8157 O.co2   1  UNL1       -0.6337
      7 O          -8.6764   14.5501   -3.1876 O.co2   1  UNL1       -0.6337
      8 O         -10.3245   14.9285   -1.1004 O.3     1  UNL1       -0.0930
      9 O          -8.8269   12.7651   -1.3942 O.3     1  UNL1       -0.2057
     10 C          -7.6195   12.0302   -1.3549 C.3     1  UNL1        0.1232
     11 C          -6.9723   12.2448   -2.6916 C.3     1  UNL1        0.1214
     12 O          -5.9326   13.2035   -2.4704 O.3     1  UNL1       -0.3453
     13 C          -6.2898   10.9674   -3.2524 C.3     1  UNL1        0.1593
     14 O          -6.3801   10.9699   -4.7063 O.3     1  UNL1       -0.2421
     15 P          -7.8973   10.9120   -5.4881 P.3     1  UNL1       -0.0004
     16 O          -7.6526    9.8383   -6.4830 O.co2   1  UNL1       -0.6646
     17 O          -8.8178   10.5489   -4.3806 O.co2   1  UNL1       -0.6646
     18 O          -8.1450   12.2856   -6.0225 O.co2   1  UNL1       -0.6646
     19 C          -4.8544   11.1761   -2.7854 C.3     1  UNL1        0.1329
     20 O          -3.9353   10.3881   -3.5742 O.3     1  UNL1       -0.3845
     21 C          -4.7836   12.6795   -3.1184 C.3     1  UNL1        0.1668
     22 N          -3.6558   13.4396   -2.5342 N.ar    1  UNL1       -0.2855
     23 C          -2.6815   14.0267   -3.3022 C.ar    1  UNL1        0.1004
     24 N          -1.7647   14.6434   -2.6172 N.ar    1  UNL1       -0.2306
     25 C          -2.1453   14.4628   -1.2490 C.ar    1  UNL1        0.1473
     26 C          -1.5488   14.9200    0.0028 C.ar    1  UNL1        0.1472
     27 N          -0.3709   15.5722    0.0475 N.pl3   1  UNL1       -0.3413
     28 N          -2.1947   14.5973    1.1543 N.ar    1  UNL1       -0.2188
     29 C          -3.3160   13.8673    1.0618 C.ar    1  UNL1        0.1205
     30 N          -3.9692   13.3714   -0.0170 N.ar    1  UNL1       -0.2159
     31 C          -3.3177   13.7179   -1.1832 C.ar    1  UNL1        0.1674
     32 H          -6.9755   12.3996   -0.5568 H       1  UNL1        0.0631
     33 H          -7.8304   10.9712   -1.2063 H       1  UNL1        0.0631
     34 H          -7.6985   12.6315   -3.4067 H       1  UNL1        0.0650
     35 H          -6.7221   10.0622   -2.8259 H       1  UNL1        0.0694
     36 H          -4.7410   10.9885   -1.7177 H       1  UNL1        0.0667
     37 H          -4.8406   12.8396   -4.1951 H       1  UNL1        0.0866
     38 H          -2.6771   13.9805   -4.3813 H       1  UNL1        0.1030
     39 H          -3.7775   13.6347    2.0101 H       1  UNL1        0.1048
     40 H          -0.3162   16.5370   -0.2463 H       1  UNL1        0.1438
     41 H           0.4577   15.0964    0.3747 H       1  UNL1        0.1438
     42 H          -3.0835   10.8296   -3.6094 H       1  UNL1        0.2101
@<TRIPOS>BOND
     1     1     2    1
     2     1     3    1
     3     1     4    1
     4     1     8    1
     5     5     6    1
     6     5     7    1
     7     5     8    1
     8     5     9    1
     9     9    10    1
    10    10    11    1
    11    11    12    1
    12    11    13    1
    13    12    21    1
    14    13    14    1
    15    13    19    1
    16    14    15    1
    17    15    16    1
    18    15    17    1
    19    15    18    1
    20    19    20    1
    21    19    21    1
    22    21    22    1
    23    22    23   ar
    24    22    31   ar
    25    23    24   ar
    26    24    25   ar
    27    25    26   ar
    28    25    31   ar
    29    26    27    1
    30    26    28   ar
    31    28    29   ar
    32    29    30   ar
    33    30    31   ar
    34    32    10    1
    35    33    10    1
    36    11    34    1
    37    13    35    1
    38    19    36    1
    39    21    37    1
    40    38    23    1
    41    39    29    1
    42    40    27    1
    43    41    27    1
    44    42    20    1
@<TRIPOS>SUBSTRUCTURE
     1 UNL1        1 TEMP              0 ****  ****    0 ROOT

########## Name:	6	3136.38  0.321444
@<TRIPOS>MOLECULE
af2_protein.mol26	
 42 44 1 0 0
SMALL
GASTEIGER


@<TRIPOS>ATOM
      1 P          -7.3891   15.9426    1.1237 P.3     1  UNL1        0.0544
      2 O          -6.9458   17.3076    1.4721 O.co2   1  UNL1       -0.6615
      3 O          -8.7236   15.8728    0.4372 O.co2   1  UNL1       -0.6615
      4 O          -7.2464   14.9675    2.2298 O.co2   1  UNL1       -0.6615
      5 P          -6.2797   14.2207   -1.2560 P.3     1  UNL1        0.2491
      6 O          -7.6384   14.2756   -1.8725 O.co2   1  UNL1       -0.6337
      7 O          -5.7731   12.9081   -0.7713 O.co2   1  UNL1       -0.6337
      8 O          -6.3372   15.4287   -0.0336 O.3     1  UNL1       -0.0930
      9 O          -5.2391   14.8085   -2.3615 O.3     1  UNL1       -0.2057
     10 C          -5.2457   14.3290   -3.6917 C.3     1  UNL1        0.1232
     11 C          -5.0451   12.8456   -3.5874 C.3     1  UNL1        0.1214
     12 O          -6.3368   12.2634   -3.7917 O.3     1  UNL1       -0.3453
     13 C          -4.1179   12.2748   -4.6950 C.3     1  UNL1        0.1593
     14 O          -3.3717   11.1419   -4.1641 O.3     1  UNL1       -0.2421
     15 P          -2.2699   11.3474   -2.8755 P.3     1  UNL1       -0.0004
     16 O          -1.0889   10.6219   -3.4058 O.co2   1  UNL1       -0.6646
     17 O          -2.1256   12.8239   -2.8063 O.co2   1  UNL1       -0.6646
     18 O          -2.9303   10.7710   -1.6650 O.co2   1  UNL1       -0.6646
     19 C          -5.1431   11.8277   -5.7301 C.3     1  UNL1        0.1329
     20 O          -4.5780   10.8435   -6.6244 O.3     1  UNL1       -0.3845
     21 C          -6.1411   11.2147   -4.7279 C.3     1  UNL1        0.1668
     22 N          -7.4998   10.9197   -5.2358 N.ar    1  UNL1       -0.2855
     23 C          -8.0017    9.6445   -5.3108 C.ar    1  UNL1        0.1004
     24 N          -9.2077    9.5756   -5.7917 N.ar    1  UNL1       -0.2306
     25 C          -9.5682   10.9320   -6.0735 C.ar    1  UNL1        0.1473
     26 C         -10.7873   11.5312   -6.6091 C.ar    1  UNL1        0.1472
     27 N         -11.8247   10.7920   -7.0476 N.pl3   1  UNL1       -0.3413
     28 N         -10.8172   12.8851   -6.7231 N.ar    1  UNL1       -0.2188
     29 C          -9.7234   13.5702   -6.3583 C.ar    1  UNL1        0.1205
     30 N          -8.5342   13.1506   -5.8623 N.ar    1  UNL1       -0.2159
     31 C          -8.5175   11.7767   -5.7326 C.ar    1  UNL1        0.1674
     32 H          -6.1992   14.5510   -4.1710 H       1  UNL1        0.0631
     33 H          -4.4290   14.7789   -4.2560 H       1  UNL1        0.0631
     34 H          -4.6629   12.5831   -2.6009 H       1  UNL1        0.0650
     35 H          -3.4531   13.0404   -5.0946 H       1  UNL1        0.0694
     36 H          -5.5727   12.6714   -6.2701 H       1  UNL1        0.0667
     37 H          -5.7116   10.3385   -4.2422 H       1  UNL1        0.0866
     38 H          -7.4437    8.7743   -4.9977 H       1  UNL1        0.1030
     39 H          -9.8043   14.6401   -6.4811 H       1  UNL1        0.1048
     40 H         -12.4303   10.3284   -6.3855 H       1  UNL1        0.1438
     41 H         -11.9969   10.7012   -8.0387 H       1  UNL1        0.1438
     42 H          -5.2726   10.2602   -6.9389 H       1  UNL1        0.2101
@<TRIPOS>BOND
     1     1     2    1
     2     1     3    1
     3     1     4    1
     4     1     8    1
     5     5     6    1
     6     5     7    1
     7     5     8    1
     8     5     9    1
     9     9    10    1
    10    10    11    1
    11    11    12    1
    12    11    13    1
    13    12    21    1
    14    13    14    1
    15    13    19    1
    16    14    15    1
    17    15    16    1
    18    15    17    1
    19    15    18    1
    20    19    20    1
    21    19    21    1
    22    21    22    1
    23    22    23   ar
    24    22    31   ar
    25    23    24   ar
    26    24    25   ar
    27    25    26   ar
    28    25    31   ar
    29    26    27    1
    30    26    28   ar
    31    28    29   ar
    32    29    30   ar
    33    30    31   ar
    34    32    10    1
    35    33    10    1
    36    11    34    1
    37    13    35    1
    38    19    36    1
    39    21    37    1
    40    38    23    1
    41    39    29    1
    42    40    27    1
    43    41    27    1
    44    42    20    1
@<TRIPOS>SUBSTRUCTURE
     1 UNL1        1 TEMP              0 ****  ****    0 ROOT

########## Name:	7	3003.46  0.314718
@<TRIPOS>MOLECULE
af2_protein.mol27	
 42 44 1 0 0
SMALL
GASTEIGER


@<TRIPOS>ATOM
      1 P         -11.3080   13.0709   -2.8867 P.3     1  UNL1        0.0544
      2 O         -12.3349   12.0144   -2.7858 O.co2   1  UNL1       -0.6615
      3 O         -11.2126   13.9695   -1.6866 O.co2   1  UNL1       -0.6615
      4 O         -11.3338   13.8082   -4.1715 O.co2   1  UNL1       -0.6615
      5 P          -8.2135   12.6363   -2.5796 P.3     1  UNL1        0.2491
      6 O          -8.2572   13.4977   -1.3609 O.co2   1  UNL1       -0.6337
      7 O          -7.4851   13.1372   -3.7766 O.co2   1  UNL1       -0.6337
      8 O          -9.8671   12.2749   -2.8830 O.3     1  UNL1       -0.0930
      9 O          -7.5620   11.2150   -2.1261 O.3     1  UNL1       -0.2057
     10 C          -6.3535   11.1713   -1.3933 C.3     1  UNL1        0.1232
     11 C          -5.3495   11.9138   -2.2254 C.3     1  UNL1        0.1214
     12 O          -5.2118   13.2000   -1.6123 O.3     1  UNL1       -0.3453
     13 C          -3.9409   11.2596   -2.2117 C.3     1  UNL1        0.1593
     14 O          -3.2924   11.4818   -3.4971 O.3     1  UNL1       -0.2421
     15 P          -3.9514   10.8324   -4.9326 P.3     1  UNL1       -0.0004
     16 O          -2.7431   10.2168   -5.5354 O.co2   1  UNL1       -0.6646
     17 O          -4.9605    9.8713   -4.4189 O.co2   1  UNL1       -0.6646
     18 O          -4.5642   11.9803   -5.6679 O.co2   1  UNL1       -0.6646
     19 C          -3.2620   12.0548   -1.1031 C.3     1  UNL1        0.1329
     20 O          -1.8238   11.9754   -1.2174 O.3     1  UNL1       -0.3845
     21 C          -3.8147   13.4325   -1.5186 C.3     1  UNL1        0.1668
     22 N          -3.6918   14.5264   -0.5289 N.ar    1  UNL1       -0.2855
     23 C          -2.9255   15.6432   -0.7508 C.ar    1  UNL1        0.1004
     24 N          -2.9281   16.4933    0.2329 N.ar    1  UNL1       -0.2306
     25 C          -3.7765   15.9046    1.2243 C.ar    1  UNL1        0.1473
     26 C          -4.2023   16.3588    2.5450 C.ar    1  UNL1        0.1472
     27 N          -3.7242   17.4832    3.1125 N.pl3   1  UNL1       -0.3413
     28 N          -5.0595   15.5585    3.2319 N.ar    1  UNL1       -0.2188
     29 C          -5.4345   14.4042    2.6613 C.ar    1  UNL1        0.1205
     30 N          -5.1139   13.8576    1.4635 N.ar    1  UNL1       -0.2159
     31 C          -4.2577   14.6837    0.7641 C.ar    1  UNL1        0.1674
     32 H          -6.4783   11.6565   -0.4252 H       1  UNL1        0.0631
     33 H          -6.0358   10.1378   -1.2563 H       1  UNL1        0.0631
     34 H          -5.7088   12.0185   -3.2492 H       1  UNL1        0.0650
     35 H          -3.9944   10.1985   -1.9683 H       1  UNL1        0.0694
     36 H          -3.6103   11.7562   -0.1145 H       1  UNL1        0.0667
     37 H          -3.4082   13.7368   -2.4831 H       1  UNL1        0.0866
     38 H          -2.3692   15.8020   -1.6629 H       1  UNL1        0.1030
     39 H          -6.1075   13.8077    3.2593 H       1  UNL1        0.1048
     40 H          -4.0330   18.3864    2.7824 H       1  UNL1        0.1438
     41 H          -3.0567   17.4230    3.8681 H       1  UNL1        0.1438
     42 H          -1.4295   12.7749   -0.8612 H       1  UNL1        0.2101
@<TRIPOS>BOND
     1     1     2    1
     2     1     3    1
     3     1     4    1
     4     1     8    1
     5     5     6    1
     6     5     7    1
     7     5     8    1
     8     5     9    1
     9     9    10    1
    10    10    11    1
    11    11    12    1
    12    11    13    1
    13    12    21    1
    14    13    14    1
    15    13    19    1
    16    14    15    1
    17    15    16    1
    18    15    17    1
    19    15    18    1
    20    19    20    1
    21    19    21    1
    22    21    22    1
    23    22    23   ar
    24    22    31   ar
    25    23    24   ar
    26    24    25   ar
    27    25    26   ar
    28    25    31   ar
    29    26    27    1
    30    26    28   ar
    31    28    29   ar
    32    29    30   ar
    33    30    31   ar
    34    32    10    1
    35    33    10    1
    36    11    34    1
    37    13    35    1
    38    19    36    1
    39    21    37    1
    40    38    23    1
    41    39    29    1
    42    40    27    1
    43    41    27    1
    44    42    20    1
@<TRIPOS>SUBSTRUCTURE
     1 UNL1        1 TEMP              0 ****  ****    0 ROOT

########## Name:	8	3203.59  0.314625
@<TRIPOS>MOLECULE
af2_protein.mol28	
 42 44 1 0 0
SMALL
GASTEIGER


@<TRIPOS>ATOM
      1 P          -1.2913   10.8383   -1.8334 P.3     1  UNL1        0.0544
      2 O          -0.8792    9.4343   -1.6339 O.co2   1  UNL1       -0.6615
      3 O          -1.9400   11.1192   -3.1590 O.co2   1  UNL1       -0.6615
      4 O          -0.2473   11.8247   -1.4702 O.co2   1  UNL1       -0.6615
      5 P          -3.7976   12.2031   -0.5239 P.3     1  UNL1        0.2491
      6 O          -4.3686   12.3695   -1.8933 O.co2   1  UNL1       -0.6337
      7 O          -3.4040   13.4219    0.2335 O.co2   1  UNL1       -0.6337
      8 O          -2.5072   11.0897   -0.7526 O.3     1  UNL1       -0.0930
      9 O          -4.8988   11.3779    0.3462 O.3     1  UNL1       -0.2057
     10 C          -6.2533   11.7827    0.3740 C.3     1  UNL1        0.1232
     11 C          -6.2397   13.2067    0.8469 C.3     1  UNL1        0.1214
     12 O          -6.4378   14.0067   -0.3235 O.3     1  UNL1       -0.3453
     13 C          -7.4055   13.5395    1.8177 C.3     1  UNL1        0.1593
     14 O          -6.9628   14.5400    2.7795 O.3     1  UNL1       -0.2421
     15 P          -5.6984   14.1994    3.8759 P.3     1  UNL1       -0.0004
     16 O          -6.3046   14.6662    5.1475 O.co2   1  UNL1       -0.6646
     17 O          -5.5497   12.7271    3.7500 O.co2   1  UNL1       -0.6646
     18 O          -4.5033   14.9484    3.3813 O.co2   1  UNL1       -0.6646
     19 C          -8.4330   14.1158    0.8510 C.3     1  UNL1        0.1329
     20 O          -9.3985   14.9322    1.5503 O.3     1  UNL1       -0.3845
     21 C          -7.4376   14.9526    0.0232 C.3     1  UNL1        0.1668
     22 N          -7.9202   15.4680   -1.2778 N.ar    1  UNL1       -0.2855
     23 C          -8.0526   16.8086   -1.5403 C.ar    1  UNL1        0.1004
     24 N          -8.4999   17.0751   -2.7315 N.ar    1  UNL1       -0.2306
     25 C          -8.6930   15.7964   -3.3455 C.ar    1  UNL1        0.1473
     26 C          -9.1566   15.4069   -4.6741 C.ar    1  UNL1        0.1472
     27 N          -9.6049   16.3023   -5.5754 N.pl3   1  UNL1       -0.3413
     28 N          -9.1923   14.0779   -4.9560 N.ar    1  UNL1       -0.2188
     29 C          -8.8223   13.2216   -3.9924 C.ar    1  UNL1        0.1205
     30 N          -8.3872   13.4383   -2.7275 N.ar    1  UNL1       -0.2159
     31 C          -8.3365   14.7901   -2.4543 C.ar    1  UNL1        0.1674
     32 H          -6.6902   11.7171   -0.6225 H       1  UNL1        0.0631
     33 H          -6.8155   11.1616    1.0712 H       1  UNL1        0.0631
     34 H          -5.2817   13.4433    1.3100 H       1  UNL1        0.0650
     35 H          -7.7808   12.6449    2.3145 H       1  UNL1        0.0694
     36 H          -8.9108   13.3401    0.2528 H       1  UNL1        0.0667
     37 H          -7.0158   15.7576    0.6250 H       1  UNL1        0.0866
     38 H          -7.8065   17.5751   -0.8202 H       1  UNL1        0.1030
     39 H          -8.8815   12.1803   -4.2728 H       1  UNL1        0.1048
     40 H          -8.9523   16.9027   -6.0588 H       1  UNL1        0.1438
     41 H         -10.5939   16.3733   -5.7677 H       1  UNL1        0.1438
     42 H          -9.7246   15.6173    0.9622 H       1  UNL1        0.2101
@<TRIPOS>BOND
     1     1     2    1
     2     1     3    1
     3     1     4    1
     4     1     8    1
     5     5     6    1
     6     5     7    1
     7     5     8    1
     8     5     9    1
     9     9    10    1
    10    10    11    1
    11    11    12    1
    12    11    13    1
    13    12    21    1
    14    13    14    1
    15    13    19    1
    16    14    15    1
    17    15    16    1
    18    15    17    1
    19    15    18    1
    20    19    20    1
    21    19    21    1
    22    21    22    1
    23    22    23   ar
    24    22    31   ar
    25    23    24   ar
    26    24    25   ar
    27    25    26   ar
    28    25    31   ar
    29    26    27    1
    30    26    28   ar
    31    28    29   ar
    32    29    30   ar
    33    30    31   ar
    34    32    10    1
    35    33    10    1
    36    11    34    1
    37    13    35    1
    38    19    36    1
    39    21    37    1
    40    38    23    1
    41    39    29    1
    42    40    27    1
    43    41    27    1
    44    42    20    1
@<TRIPOS>SUBSTRUCTURE
     1 UNL1        1 TEMP              0 ****  ****    0 ROOT

########## Name:	9	2996.83  0.348558
@<TRIPOS>MOLECULE
af2_protein.mol29	
 42 44 1 0 0
SMALL
GASTEIGER


@<TRIPOS>ATOM
      1 P          -5.7709   15.0819    5.4491 P.3     1  UNL1        0.0544
      2 O          -6.3522   16.3005    6.0475 O.co2   1  UNL1       -0.6615
      3 O          -6.7783   14.0618    5.0003 O.co2   1  UNL1       -0.6615
      4 O          -4.6589   14.5014    6.2374 O.co2   1  UNL1       -0.6615
      5 P          -4.5484   14.8759    2.5643 P.3     1  UNL1        0.2491
      6 O          -5.6390   13.9170    2.2175 O.co2   1  UNL1       -0.6337
      7 O          -3.1495   14.3712    2.6148 O.co2   1  UNL1       -0.6337
      8 O          -5.0785   15.5797    4.0410 O.3     1  UNL1       -0.0930
      9 O          -4.6293   16.0895    1.4821 O.3     1  UNL1       -0.2057
     10 C          -4.6891   15.8223    0.0949 C.3     1  UNL1        0.1232
     11 C          -3.4776   14.9906   -0.2088 C.3     1  UNL1        0.1214
     12 O          -3.9509   13.6453   -0.3326 O.3     1  UNL1       -0.3453
     13 C          -2.8097   15.3552   -1.5628 C.3     1  UNL1        0.1593
     14 O          -1.3714   15.1471   -1.4637 O.3     1  UNL1       -0.2421
     15 P          -0.4298   16.0575   -0.3677 P.3     1  UNL1       -0.0004
     16 O           0.6818   16.4873   -1.2521 O.co2   1  UNL1       -0.6646
     17 O          -1.3643   17.1366    0.0421 O.co2   1  UNL1       -0.6646
     18 O          -0.0828   15.1326    0.7539 O.co2   1  UNL1       -0.6646
     19 C          -3.4556   14.3327   -2.4900 C.3     1  UNL1        0.1329
     20 O          -2.6624   14.1442   -3.6829 O.3     1  UNL1       -0.3845
     21 C          -3.3604   13.1387   -1.5197 C.3     1  UNL1        0.1668
     22 N          -4.1704   11.9447   -1.8503 N.ar    1  UNL1       -0.2855
     23 C          -3.6088   10.7301   -2.1556 C.ar    1  UNL1        0.1004
     24 N          -4.4737    9.7988   -2.4296 N.ar    1  UNL1       -0.2306
     25 C          -5.7501   10.4338   -2.3000 C.ar    1  UNL1        0.1473
     26 C          -7.1134    9.9353   -2.4575 C.ar    1  UNL1        0.1472
     27 N          -7.3824    8.6868   -2.8863 N.pl3   1  UNL1       -0.3413
     28 N          -8.1268   10.8102   -2.2237 N.ar    1  UNL1       -0.2188
     29 C          -7.8053   12.0683   -1.8882 C.ar    1  UNL1        0.1205
     30 N          -6.6002   12.6643   -1.7187 N.ar    1  UNL1       -0.2159
     31 C          -5.5764   11.7658   -1.9402 C.ar    1  UNL1        0.1674
     32 H          -5.5985   15.2722   -0.1473 H       1  UNL1        0.0631
     33 H          -4.6542   16.7549   -0.4680 H       1  UNL1        0.0631
     34 H          -2.7538   15.0645    0.6028 H       1  UNL1        0.0650
     35 H          -3.0469   16.3754   -1.8645 H       1  UNL1        0.0694
     36 H          -4.4892   14.5883   -2.7229 H       1  UNL1        0.0667
     37 H          -2.3199   12.8637   -1.3467 H       1  UNL1        0.0866
     38 H          -2.5419   10.5627   -2.1672 H       1  UNL1        0.1030
     39 H          -8.6525   12.7179   -1.7251 H       1  UNL1        0.1048
     40 H          -7.2436    7.8997   -2.2689 H       1  UNL1        0.1438
     41 H          -7.7229    8.5379   -3.8255 H       1  UNL1        0.1438
     42 H          -2.7860   13.2509   -4.0120 H       1  UNL1        0.2101
@<TRIPOS>BOND
     1     1     2    1
     2     1     3    1
     3     1     4    1
     4     1     8    1
     5     5     6    1
     6     5     7    1
     7     5     8    1
     8     5     9    1
     9     9    10    1
    10    10    11    1
    11    11    12    1
    12    11    13    1
    13    12    21    1
    14    13    14    1
    15    13    19    1
    16    14    15    1
    17    15    16    1
    18    15    17    1
    19    15    18    1
    20    19    20    1
    21    19    21    1
    22    21    22    1
    23    22    23   ar
    24    22    31   ar
    25    23    24   ar
    26    24    25   ar
    27    25    26   ar
    28    25    31   ar
    29    26    27    1
    30    26    28   ar
    31    28    29   ar
    32    29    30   ar
    33    30    31   ar
    34    32    10    1
    35    33    10    1
    36    11    34    1
    37    13    35    1
    38    19    36    1
    39    21    37    1
    40    38    23    1
    41    39    29    1
    42    40    27    1
    43    41    27    1
    44    42    20    1
@<TRIPOS>SUBSTRUCTURE
     1 UNL1        1 TEMP              0 ****  ****    0 ROOT

########## Name:	10	3690.5  0.296902
@<TRIPOS>MOLECULE
af2_protein.mol210	
 42 44 1 0 0
SMALL
GASTEIGER


@<TRIPOS>ATOM
      1 P         -12.3854   16.0356   -3.8892 P.3     1  UNL1        0.0544
      2 O         -13.5945   15.9346   -4.7311 O.co2   1  UNL1       -0.6615
      3 O         -12.3431   15.0752   -2.7348 O.co2   1  UNL1       -0.6615
      4 O         -12.0355   17.4244   -3.5105 O.co2   1  UNL1       -0.6615
      5 P          -9.5386   14.9551   -4.6557 P.3     1  UNL1        0.2491
      6 O          -9.6409   13.9999   -3.5127 O.co2   1  UNL1       -0.6337
      7 O          -8.5219   16.0394   -4.5852 O.co2   1  UNL1       -0.6337
      8 O         -11.1466   15.5326   -4.8497 O.3     1  UNL1       -0.0930
      9 O          -9.2621   14.0629   -5.9891 O.3     1  UNL1       -0.2057
     10 C          -8.2387   13.0874   -6.0104 C.3     1  UNL1        0.1232
     11 C          -6.9773   13.8174   -5.6534 C.3     1  UNL1        0.1214
     12 O          -6.7133   13.4909   -4.2850 O.3     1  UNL1       -0.3453
     13 C          -5.7447   13.3439   -6.4712 C.3     1  UNL1        0.1593
     14 O          -4.8417   14.4679   -6.6789 O.3     1  UNL1       -0.2421
     15 P          -5.3375   15.8331   -7.5773 P.3     1  UNL1       -0.0004
     16 O          -4.1778   15.9979   -8.4886 O.co2   1  UNL1       -0.6646
     17 O          -6.5868   15.3577   -8.2244 O.co2   1  UNL1       -0.6646
     18 O          -5.5767   16.9232   -6.5832 O.co2   1  UNL1       -0.6646
     19 C          -5.1423   12.3168   -5.5201 C.3     1  UNL1        0.1329
     20 O          -3.7490   12.0858   -5.8252 O.3     1  UNL1       -0.3845
     21 C          -5.3387   13.1411   -4.2325 C.3     1  UNL1        0.1668
     22 N          -5.1943   12.4177   -2.9491 N.ar    1  UNL1       -0.2855
     23 C          -4.2031   12.7052   -2.0443 C.ar    1  UNL1        0.1004
     24 N          -4.2248   11.9613   -0.9783 N.ar    1  UNL1       -0.2306
     25 C          -5.3362   11.0794   -1.1689 C.ar    1  UNL1        0.1473
     26 C          -5.9029   10.0225   -0.3360 C.ar    1  UNL1        0.1472
     27 N          -5.3328    9.6270    0.8188 N.pl3   1  UNL1       -0.3413
     28 N          -7.0071    9.3844   -0.8060 N.ar    1  UNL1       -0.2188
     29 C          -7.4828    9.7531   -2.0045 C.ar    1  UNL1        0.1205
     30 N          -7.0576   10.6965   -2.8795 N.ar    1  UNL1       -0.2159
     31 C          -5.9473   11.3523   -2.3879 C.ar    1  UNL1        0.1674
     32 H          -8.4446   12.3045   -5.2804 H       1  UNL1        0.0631
     33 H          -8.1529   12.6564   -7.0078 H       1  UNL1        0.0631
     34 H          -7.1165   14.8926   -5.7664 H       1  UNL1        0.0650
     35 H          -6.0417   12.8888   -7.4161 H       1  UNL1        0.0694
     36 H          -5.7158   11.3901   -5.5034 H       1  UNL1        0.0667
     37 H          -4.7123   14.0330   -4.2456 H       1  UNL1        0.0866
     38 H          -3.4694   13.4815   -2.2040 H       1  UNL1        0.1030
     39 H          -8.3545    9.2036   -2.3279 H       1  UNL1        0.1048
     40 H          -5.3993   10.2102    1.6407 H       1  UNL1        0.1438
     41 H          -4.8387    8.7473    0.8626 H       1  UNL1        0.1438
     42 H          -3.2825   11.8374   -5.0237 H       1  UNL1        0.2101
@<TRIPOS>BOND
     1     1     2    1
     2     1     3    1
     3     1     4    1
     4     1     8    1
     5     5     6    1
     6     5     7    1
     7     5     8    1
     8     5     9    1
     9     9    10    1
    10    10    11    1
    11    11    12    1
    12    11    13    1
    13    12    21    1
    14    13    14    1
    15    13    19    1
    16    14    15    1
    17    15    16    1
    18    15    17    1
    19    15    18    1
    20    19    20    1
    21    19    21    1
    22    21    22    1
    23    22    23   ar
    24    22    31   ar
    25    23    24   ar
    26    24    25   ar
    27    25    26   ar
    28    25    31   ar
    29    26    27    1
    30    26    28   ar
    31    28    29   ar
    32    29    30   ar
    33    30    31   ar
    34    32    10    1
    35    33    10    1
    36    11    34    1
    37    13    35    1
    38    19    36    1
    39    21    37    1
    40    38    23    1
    41    39    29    1
    42    40    27    1
    43    41    27    1
    44    42    20    1
@<TRIPOS>SUBSTRUCTURE
     1 UNL1        1 TEMP              0 ****  ****    0 ROOT

########## Name:	11	3667.04  0.321938
@<TRIPOS>MOLECULE
af2_protein.mol211	
 42 44 1 0 0
SMALL
GASTEIGER


@<TRIPOS>ATOM
      1 P         -12.3571   15.0765   -4.5658 P.3     1  UNL1        0.0544
      2 O         -13.3559   15.0740   -5.6536 O.co2   1  UNL1       -0.6615
      3 O         -12.4185   13.8830   -3.6554 O.co2   1  UNL1       -0.6615
      4 O         -12.2681   16.3647   -3.8396 O.co2   1  UNL1       -0.6615
      5 P          -9.3014   14.4361   -4.8992 P.3     1  UNL1        0.2491
      6 O          -9.5017   13.2386   -4.0303 O.co2   1  UNL1       -0.6337
      7 O          -8.4649   15.5541   -4.3846 O.co2   1  UNL1       -0.6337
      8 O         -10.9010   14.9103   -5.3154 O.3     1  UNL1       -0.0930
      9 O          -8.6586   13.9001   -6.2956 O.3     1  UNL1       -0.2057
     10 C          -7.5347   13.0420   -6.2951 C.3     1  UNL1        0.1232
     11 C          -6.4708   13.7704   -5.5274 C.3     1  UNL1        0.1214
     12 O          -6.4391   13.1604   -4.2328 O.3     1  UNL1       -0.3453
     13 C          -5.0522   13.5993   -6.1363 C.3     1  UNL1        0.1593
     14 O          -4.2771   14.8105   -5.9035 O.3     1  UNL1       -0.2421
     15 P          -4.7584   16.3009   -6.5845 P.3     1  UNL1       -0.0004
     16 O          -3.4741   16.7645   -7.1659 O.co2   1  UNL1       -0.6646
     17 O          -5.7865   15.8872   -7.5733 O.co2   1  UNL1       -0.6646
     18 O          -5.3241   17.1100   -5.4624 O.co2   1  UNL1       -0.6646
     19 C          -4.5207   12.4335   -5.3113 C.3     1  UNL1        0.1329
     20 O          -3.0768   12.3928   -5.3458 O.3     1  UNL1       -0.3845
     21 C          -5.0680   12.9207   -3.9552 C.3     1  UNL1        0.1668
     22 N          -5.0854   11.9357   -2.8504 N.ar    1  UNL1       -0.2855
     23 C          -4.3347   12.0869   -1.7114 C.ar    1  UNL1        0.1004
     24 N          -4.4687   11.1185   -0.8544 N.ar    1  UNL1       -0.2306
     25 C          -5.3997   10.2169   -1.4622 C.ar    1  UNL1        0.1473
     26 C          -5.9782    8.9543   -1.0116 C.ar    1  UNL1        0.1472
     27 N          -5.5985    8.3514    0.1319 N.pl3   1  UNL1       -0.3413
     28 N          -6.8788    8.3539   -1.8335 N.ar    1  UNL1       -0.2188
     29 C          -7.1548    8.9485   -3.0035 C.ar    1  UNL1        0.1205
     30 N          -6.6912   10.0992   -3.5488 N.ar    1  UNL1       -0.2159
     31 C          -5.7911   10.7123   -2.7012 C.ar    1  UNL1        0.1674
     32 H          -7.7772   12.0982   -5.8067 H       1  UNL1        0.0631
     33 H          -7.2017   12.8605   -7.3169 H       1  UNL1        0.0631
     34 H          -6.7215   14.8278   -5.4421 H       1  UNL1        0.0650
     35 H          -5.0987   13.3513   -7.1966 H       1  UNL1        0.0694
     36 H          -4.9634   11.4844   -5.6133 H       1  UNL1        0.0667
     37 H          -4.5702   13.8396   -3.6455 H       1  UNL1        0.0866
     38 H          -3.6892   12.9361   -1.5420 H       1  UNL1        0.1030
     39 H          -7.8693    8.4191   -3.6165 H       1  UNL1        0.1048
     40 H          -5.8979    8.7226    1.0222 H       1  UNL1        0.1438
     41 H          -5.0141    7.5283    0.0987 H       1  UNL1        0.1438
     42 H          -2.7477   12.0054   -4.5314 H       1  UNL1        0.2101
@<TRIPOS>BOND
     1     1     2    1
     2     1     3    1
     3     1     4    1
     4     1     8    1
     5     5     6    1
     6     5     7    1
     7     5     8    1
     8     5     9    1
     9     9    10    1
    10    10    11    1
    11    11    12    1
    12    11    13    1
    13    12    21    1
    14    13    14    1
    15    13    19    1
    16    14    15    1
    17    15    16    1
    18    15    17    1
    19    15    18    1
    20    19    20    1
    21    19    21    1
    22    21    22    1
    23    22    23   ar
    24    22    31   ar
    25    23    24   ar
    26    24    25   ar
    27    25    26   ar
    28    25    31   ar
    29    26    27    1
    30    26    28   ar
    31    28    29   ar
    32    29    30   ar
    33    30    31   ar
    34    32    10    1
    35    33    10    1
    36    11    34    1
    37    13    35    1
    38    19    36    1
    39    21    37    1
    40    38    23    1
    41    39    29    1
    42    40    27    1
    43    41    27    1
    44    42    20    1
@<TRIPOS>SUBSTRUCTURE
     1 UNL1        1 TEMP              0 ****  ****    0 ROOT

########## Name:	12	3903.69  0.316695
@<TRIPOS>MOLECULE
af2_protein.mol212	
 42 44 1 0 0
SMALL
GASTEIGER


@<TRIPOS>ATOM
      1 P          -7.1161    9.1504    1.2040 P.3     1  UNL1        0.0544
      2 O          -5.9961    8.5798    1.9792 O.co2   1  UNL1       -0.6615
      3 O          -7.7039   10.4060    1.7827 O.co2   1  UNL1       -0.6615
      4 O          -8.1372    8.1530    0.8073 O.co2   1  UNL1       -0.6615
      5 P          -6.8417   10.7383   -1.4908 P.3     1  UNL1        0.2491
      6 O          -7.3791   11.9404   -0.7871 O.co2   1  UNL1       -0.6337
      7 O          -7.6665   10.1152   -2.5612 O.co2   1  UNL1       -0.6337
      8 O          -6.4472    9.6591   -0.2115 O.3     1  UNL1       -0.0930
      9 O          -5.4031   11.1676   -2.1204 O.3     1  UNL1       -0.2057
     10 C          -5.2704   12.3458   -2.8909 C.3     1  UNL1        0.1232
     11 C          -6.2608   12.2102   -4.0100 C.3     1  UNL1        0.1214
     12 O          -7.3681   13.0438   -3.6521 O.3     1  UNL1       -0.3453
     13 C          -5.7245   12.7390   -5.3683 C.3     1  UNL1        0.1593
     14 O          -6.2951   11.9514   -6.4528 O.3     1  UNL1       -0.2421
     15 P          -5.9651   10.2812   -6.5878 P.3     1  UNL1       -0.0004
     16 O          -5.6003   10.1886   -8.0233 O.co2   1  UNL1       -0.6646
     17 O          -4.8393   10.0965   -5.6368 O.co2   1  UNL1       -0.6646
     18 O          -7.2096    9.5733   -6.1591 O.co2   1  UNL1       -0.6646
     19 C          -6.2758   14.1597   -5.3650 C.3     1  UNL1        0.1329
     20 O          -6.3287   14.6959   -6.7057 O.3     1  UNL1       -0.3845
     21 C          -7.6700   13.8003   -4.8146 C.3     1  UNL1        0.1668
     22 N          -8.4994   14.9206   -4.3164 N.ar    1  UNL1       -0.2855
     23 C          -9.6884   15.2788   -4.9010 C.ar    1  UNL1        0.1004
     24 N         -10.2743   16.2923   -4.3355 N.ar    1  UNL1       -0.2306
     25 C          -9.4055   16.6656   -3.2608 C.ar    1  UNL1        0.1473
     26 C          -9.4970   17.7090   -2.2435 C.ar    1  UNL1        0.1472
     27 N         -10.4829   18.6272   -2.2353 N.pl3   1  UNL1       -0.3413
     28 N          -8.4959   17.7737   -1.3266 N.ar    1  UNL1       -0.2188
     29 C          -7.4892   16.8940   -1.4329 C.ar    1  UNL1        0.1205
     30 N          -7.2713   15.8932   -2.3202 N.ar    1  UNL1       -0.2159
     31 C          -8.3002   15.8220   -3.2372 C.ar    1  UNL1        0.1674
     32 H          -5.4981   13.2234   -2.2858 H       1  UNL1        0.0631
     33 H          -4.2595   12.4191   -3.2919 H       1  UNL1        0.0631
     34 H          -6.5830   11.1734   -4.1076 H       1  UNL1        0.0650
     35 H          -4.6350   12.7323   -5.3988 H       1  UNL1        0.0694
     36 H          -5.7240   14.8101   -4.6864 H       1  UNL1        0.0667
     37 H          -8.2256   13.1984   -5.5336 H       1  UNL1        0.0866
     38 H         -10.1013   14.7636   -5.7558 H       1  UNL1        0.1030
     39 H          -6.7201   17.0019   -0.6825 H       1  UNL1        0.1048
     40 H         -11.4146   18.3654   -1.9466 H       1  UNL1        0.1438
     41 H         -10.2902   19.5775   -2.5180 H       1  UNL1        0.1438
     42 H          -7.0449   15.3320   -6.7682 H       1  UNL1        0.2101
@<TRIPOS>BOND
     1     1     2    1
     2     1     3    1
     3     1     4    1
     4     1     8    1
     5     5     6    1
     6     5     7    1
     7     5     8    1
     8     5     9    1
     9     9    10    1
    10    10    11    1
    11    11    12    1
    12    11    13    1
    13    12    21    1
    14    13    14    1
    15    13    19    1
    16    14    15    1
    17    15    16    1
    18    15    17    1
    19    15    18    1
    20    19    20    1
    21    19    21    1
    22    21    22    1
    23    22    23   ar
    24    22    31   ar
    25    23    24   ar
    26    24    25   ar
    27    25    26   ar
    28    25    31   ar
    29    26    27    1
    30    26    28   ar
    31    28    29   ar
    32    29    30   ar
    33    30    31   ar
    34    32    10    1
    35    33    10    1
    36    11    34    1
    37    13    35    1
    38    19    36    1
    39    21    37    1
    40    38    23    1
    41    39    29    1
    42    40    27    1
    43    41    27    1
    44    42    20    1
@<TRIPOS>SUBSTRUCTURE
     1 UNL1        1 TEMP              0 ****  ****    0 ROOT

########## Name:	13	3523.72  0.319947
@<TRIPOS>MOLECULE
af2_protein.mol213	
 42 44 1 0 0
SMALL
GASTEIGER


@<TRIPOS>ATOM
      1 P         -12.8972   12.7056   -2.1494 P.3     1  UNL1        0.0544
      2 O         -13.6807   13.7516   -1.4616 O.co2   1  UNL1       -0.6615
      3 O         -12.6828   12.9456   -3.6168 O.co2   1  UNL1       -0.6615
      4 O         -13.3399   11.3263   -1.8387 O.co2   1  UNL1       -0.6615
      5 P          -9.7867   12.3301   -1.9427 P.3     1  UNL1        0.2491
      6 O          -9.6951   12.6465   -3.3989 O.co2   1  UNL1       -0.6337
      7 O          -9.4463   10.9529   -1.4933 O.co2   1  UNL1       -0.6337
      8 O         -11.3806   12.8167   -1.5189 O.3     1  UNL1       -0.0930
      9 O          -8.8187   13.3875   -1.1712 O.3     1  UNL1       -0.2057
     10 C          -7.4851   13.5928   -1.5940 C.3     1  UNL1        0.1232
     11 C          -6.8378   12.2395   -1.5601 C.3     1  UNL1        0.1214
     12 O          -6.7824   11.8011   -2.9217 O.3     1  UNL1       -0.3453
     13 C          -5.3739   12.2749   -1.0426 C.3     1  UNL1        0.1593
     14 O          -5.0834   11.0384   -0.3294 O.3     1  UNL1       -0.2421
     15 P          -5.9340   10.6297    1.0941 P.3     1  UNL1       -0.0004
     16 O          -4.8094   10.2605    1.9893 O.co2   1  UNL1       -0.6646
     17 O          -6.6220   11.9008    1.4354 O.co2   1  UNL1       -0.6646
     18 O          -6.8831    9.5390    0.7153 O.co2   1  UNL1       -0.6646
     19 C          -4.6035   12.3522   -2.3552 C.3     1  UNL1        0.1329
     20 O          -3.2373   11.9165   -2.1783 O.3     1  UNL1       -0.3845
     21 C          -5.4607   11.3220   -3.1168 C.3     1  UNL1        0.1668
     22 N          -5.3009   11.2788   -4.5878 N.ar    1  UNL1       -0.2855
     23 C          -4.8052   10.1818   -5.2470 C.ar    1  UNL1        0.1004
     24 N          -4.7261   10.3279   -6.5365 N.ar    1  UNL1       -0.2306
     25 C          -5.2137   11.6503   -6.7866 C.ar    1  UNL1        0.1473
     26 C          -5.3966   12.4107   -8.0196 C.ar    1  UNL1        0.1472
     27 N          -4.9980   11.9487   -9.2207 N.pl3   1  UNL1       -0.3413
     28 N          -5.9265   13.6574   -7.9091 N.ar    1  UNL1       -0.2188
     29 C          -6.2220   14.1074   -6.6807 C.ar    1  UNL1        0.1205
     30 N          -6.0963   13.5234   -5.4644 N.ar    1  UNL1       -0.2159
     31 C          -5.5745   12.2516   -5.5857 C.ar    1  UNL1        0.1674
     32 H          -7.4652   13.9987   -2.6054 H       1  UNL1        0.0631
     33 H          -6.9750   14.2695   -0.9086 H       1  UNL1        0.0631
     34 H          -7.4340   11.5489   -0.9636 H       1  UNL1        0.0650
     35 H          -5.1907   13.1496   -0.4187 H       1  UNL1        0.0694
     36 H          -4.6611   13.3435   -2.8046 H       1  UNL1        0.0667
     37 H          -5.3427   10.3277   -2.6862 H       1  UNL1        0.0866
     38 H          -4.5071    9.2765   -4.7391 H       1  UNL1        0.1030
     39 H          -6.6301   15.1070   -6.6570 H       1  UNL1        0.1048
     40 H          -5.5217   11.2173   -9.6798 H       1  UNL1        0.1438
     41 H          -4.1751   12.3337   -9.6620 H       1  UNL1        0.1438
     42 H          -2.9126   11.5391   -2.9991 H       1  UNL1        0.2101
@<TRIPOS>BOND
     1     1     2    1
     2     1     3    1
     3     1     4    1
     4     1     8    1
     5     5     6    1
     6     5     7    1
     7     5     8    1
     8     5     9    1
     9     9    10    1
    10    10    11    1
    11    11    12    1
    12    11    13    1
    13    12    21    1
    14    13    14    1
    15    13    19    1
    16    14    15    1
    17    15    16    1
    18    15    17    1
    19    15    18    1
    20    19    20    1
    21    19    21    1
    22    21    22    1
    23    22    23   ar
    24    22    31   ar
    25    23    24   ar
    26    24    25   ar
    27    25    26   ar
    28    25    31   ar
    29    26    27    1
    30    26    28   ar
    31    28    29   ar
    32    29    30   ar
    33    30    31   ar
    34    32    10    1
    35    33    10    1
    36    11    34    1
    37    13    35    1
    38    19    36    1
    39    21    37    1
    40    38    23    1
    41    39    29    1
    42    40    27    1
    43    41    27    1
    44    42    20    1
@<TRIPOS>SUBSTRUCTURE
     1 UNL1        1 TEMP              0 ****  ****    0 ROOT

########## Name:	14	3505.14  0.314772
@<TRIPOS>MOLECULE
af2_protein.mol214	
 42 44 1 0 0
SMALL
GASTEIGER


@<TRIPOS>ATOM
      1 P         -11.8881   15.7598   -0.0588 P.3     1  UNL1        0.0544
      2 O         -11.6419   16.6571    1.0881 O.co2   1  UNL1       -0.6615
      3 O         -12.0468   16.4587   -1.3791 O.co2   1  UNL1       -0.6615
      4 O         -12.9318   14.7394    0.1944 O.co2   1  UNL1       -0.6615
      5 P          -9.7244   13.9753   -1.4705 P.3     1  UNL1        0.2491
      6 O          -9.9262   14.7855   -2.7083 O.co2   1  UNL1       -0.6337
      7 O         -10.1395   12.5464   -1.4825 O.co2   1  UNL1       -0.6337
      8 O         -10.4942   14.9041   -0.2451 O.3     1  UNL1       -0.0930
      9 O          -8.1391   14.0578   -1.1094 O.3     1  UNL1       -0.2057
     10 C          -7.1563   13.7937   -2.0911 C.3     1  UNL1        0.1232
     11 C          -7.4586   12.4167   -2.6051 C.3     1  UNL1        0.1214
     12 O          -8.1016   12.6066   -3.8699 O.3     1  UNL1       -0.3453
     13 C          -6.1839   11.5714   -2.8748 C.3     1  UNL1        0.1593
     14 O          -6.4708   10.1673   -2.6132 O.3     1  UNL1       -0.2421
     15 P          -6.8995    9.6398   -1.0465 P.3     1  UNL1       -0.0004
     16 O          -5.9974    8.4713   -0.8939 O.co2   1  UNL1       -0.6646
     17 O          -6.5583   10.8153   -0.2053 O.co2   1  UNL1       -0.6646
     18 O          -8.3672    9.3606   -1.0864 O.co2   1  UNL1       -0.6646
     19 C          -5.9751   11.8270   -4.3625 C.3     1  UNL1        0.1329
     20 O          -5.1570   10.7933   -4.9540 O.3     1  UNL1       -0.3845
     21 C          -7.4587   11.7121   -4.7650 C.3     1  UNL1        0.1668
     22 N          -7.8258   12.2130   -6.1088 N.ar    1  UNL1       -0.2855
     23 C          -8.3076   11.3932   -7.0985 C.ar    1  UNL1        0.1004
     24 N          -8.5667   12.0052   -8.2159 N.ar    1  UNL1       -0.2306
     25 C          -8.2311   13.3750   -7.9704 C.ar    1  UNL1        0.1473
     26 C          -8.3067   14.5682   -8.8086 C.ar    1  UNL1        0.1472
     27 N          -8.6574   14.5184  -10.1084 N.pl3   1  UNL1       -0.3413
     28 N          -7.9344   15.7482   -8.2465 N.ar    1  UNL1       -0.2188
     29 C          -7.5053   15.7307   -6.9760 C.ar    1  UNL1        0.1205
     30 N          -7.3738   14.7099   -6.0945 N.ar    1  UNL1       -0.2159
     31 C          -7.7705   13.5180   -6.6661 C.ar    1  UNL1        0.1674
     32 H          -7.2196   14.5234   -2.8984 H       1  UNL1        0.0631
     33 H          -6.1632   13.8166   -1.6425 H       1  UNL1        0.0631
     34 H          -8.1224   11.8926   -1.9175 H       1  UNL1        0.0650
     35 H          -5.3375   11.9237   -2.2853 H       1  UNL1        0.0694
     36 H          -5.5761   12.8231   -4.5535 H       1  UNL1        0.0667
     37 H          -7.8204   10.6942   -4.6202 H       1  UNL1        0.0866
     38 H          -8.4584   10.3326   -6.9610 H       1  UNL1        0.1030
     39 H          -7.2145   16.6961   -6.5889 H       1  UNL1        0.1048
     40 H          -9.6218   14.3650  -10.3660 H       1  UNL1        0.1438
     41 H          -7.9556   14.6344  -10.8255 H       1  UNL1        0.1438
     42 H          -5.3939   10.6870   -5.8783 H       1  UNL1        0.2101
@<TRIPOS>BOND
     1     1     2    1
     2     1     3    1
     3     1     4    1
     4     1     8    1
     5     5     6    1
     6     5     7    1
     7     5     8    1
     8     5     9    1
     9     9    10    1
    10    10    11    1
    11    11    12    1
    12    11    13    1
    13    12    21    1
    14    13    14    1
    15    13    19    1
    16    14    15    1
    17    15    16    1
    18    15    17    1
    19    15    18    1
    20    19    20    1
    21    19    21    1
    22    21    22    1
    23    22    23   ar
    24    22    31   ar
    25    23    24   ar
    26    24    25   ar
    27    25    26   ar
    28    25    31   ar
    29    26    27    1
    30    26    28   ar
    31    28    29   ar
    32    29    30   ar
    33    30    31   ar
    34    32    10    1
    35    33    10    1
    36    11    34    1
    37    13    35    1
    38    19    36    1
    39    21    37    1
    40    38    23    1
    41    39    29    1
    42    40    27    1
    43    41    27    1
    44    42    20    1
@<TRIPOS>SUBSTRUCTURE
     1 UNL1        1 TEMP              0 ****  ****    0 ROOT

########## Name:	15	3164.45  0.326642
@<TRIPOS>MOLECULE
af2_protein.mol215	
 42 44 1 0 0
SMALL
GASTEIGER


@<TRIPOS>ATOM
      1 P          -1.7399    9.1511   -4.9268 P.3     1  UNL1        0.0544
      2 O          -0.9055    9.3846   -6.1227 O.co2   1  UNL1       -0.6615
      3 O          -1.0530    9.4266   -3.6194 O.co2   1  UNL1       -0.6615
      4 O          -2.4660    7.8599   -4.9478 O.co2   1  UNL1       -0.6615
      5 P          -4.0332   11.0399   -3.9109 P.3     1  UNL1        0.2491
      6 O          -3.2261   11.2858   -2.6791 O.co2   1  UNL1       -0.6337
      7 O          -5.3159   10.2966   -3.7818 O.co2   1  UNL1       -0.6337
      8 O          -2.9164   10.3008   -4.9895 O.3     1  UNL1       -0.0930
      9 O          -4.3357   12.4965   -4.5720 O.3     1  UNL1       -0.2057
     10 C          -4.8555   13.5544   -3.7909 C.3     1  UNL1        0.1232
     11 C          -6.1267   13.0277   -3.1924 C.3     1  UNL1        0.1214
     12 O          -5.8126   12.7073   -1.8330 O.3     1  UNL1       -0.3453
     13 C          -7.2657   14.0828   -3.1506 C.3     1  UNL1        0.1593
     14 O          -8.5497   13.4146   -3.3153 O.3     1  UNL1       -0.2421
     15 P          -8.9203   12.5758   -4.7560 P.3     1  UNL1       -0.0004
     16 O         -10.2712   13.1161   -5.0483 O.co2   1  UNL1       -0.6646
     17 O          -7.8466   13.0268   -5.6776 O.co2   1  UNL1       -0.6646
     18 O          -8.8304   11.1206   -4.4273 O.co2   1  UNL1       -0.6646
     19 C          -7.1026   14.6306   -1.7380 C.3     1  UNL1        0.1329
     20 O          -8.3188   15.2676   -1.2878 O.3     1  UNL1       -0.3845
     21 C          -6.8576   13.2706   -1.0550 C.3     1  UNL1        0.1668
     22 N          -6.3119   13.3040    0.3206 N.ar    1  UNL1       -0.2855
     23 C          -7.0096   12.8354    1.4057 C.ar    1  UNL1        0.1004
     24 N          -6.3778   12.9551    2.5356 N.ar    1  UNL1       -0.2306
     25 C          -5.1276   13.5633    2.1943 C.ar    1  UNL1        0.1473
     26 C          -3.9716   13.9463    2.9997 C.ar    1  UNL1        0.1472
     27 N          -3.9625   13.8515    4.3436 N.pl3   1  UNL1       -0.3413
     28 N          -2.9074   14.4819    2.3458 N.ar    1  UNL1       -0.2188
     29 C          -3.0016   14.6404    1.0174 C.ar    1  UNL1        0.1205
     30 N          -4.0034   14.3444    0.1542 N.ar    1  UNL1       -0.2159
     31 C          -5.0734   13.7847    0.8225 C.ar    1  UNL1        0.1674
     32 H          -4.1508   13.8291   -3.0059 H       1  UNL1        0.0631
     33 H          -5.0678   14.4169   -4.4225 H       1  UNL1        0.0631
     34 H          -6.4558   12.1358   -3.7256 H       1  UNL1        0.0650
     35 H          -7.1196   14.8598   -3.9008 H       1  UNL1        0.0694
     36 H          -6.2400   15.2914   -1.6535 H       1  UNL1        0.0667
     37 H          -7.7516   12.6488   -1.1008 H       1  UNL1        0.0866
     38 H          -7.9971   12.4049    1.3277 H       1  UNL1        0.1030
     39 H          -2.1292   15.0794    0.5565 H       1  UNL1        0.1048
     40 H          -3.8794   12.9472    4.7857 H       1  UNL1        0.1438
     41 H          -4.0389   14.6848    4.9091 H       1  UNL1        0.1438
     42 H          -8.3842   15.1946   -0.3328 H       1  UNL1        0.2101
@<TRIPOS>BOND
     1     1     2    1
     2     1     3    1
     3     1     4    1
     4     1     8    1
     5     5     6    1
     6     5     7    1
     7     5     8    1
     8     5     9    1
     9     9    10    1
    10    10    11    1
    11    11    12    1
    12    11    13    1
    13    12    21    1
    14    13    14    1
    15    13    19    1
    16    14    15    1
    17    15    16    1
    18    15    17    1
    19    15    18    1
    20    19    20    1
    21    19    21    1
    22    21    22    1
    23    22    23   ar
    24    22    31   ar
    25    23    24   ar
    26    24    25   ar
    27    25    26   ar
    28    25    31   ar
    29    26    27    1
    30    26    28   ar
    31    28    29   ar
    32    29    30   ar
    33    30    31   ar
    34    32    10    1
    35    33    10    1
    36    11    34    1
    37    13    35    1
    38    19    36    1
    39    21    37    1
    40    38    23    1
    41    39    29    1
    42    40    27    1
    43    41    27    1
    44    42    20    1
@<TRIPOS>SUBSTRUCTURE
     1 UNL1        1 TEMP              0 ****  ****    0 ROOT

########## Name:	16	3214.92  0.325165
@<TRIPOS>MOLECULE
af2_protein.mol216	
 42 44 1 0 0
SMALL
GASTEIGER


@<TRIPOS>ATOM
      1 P          -1.4789    9.4254   -5.2246 P.3     1  UNL1        0.0544
      2 O          -0.6525    9.7815   -6.3957 O.co2   1  UNL1       -0.6615
      3 O          -0.9021    9.8398   -3.9008 O.co2   1  UNL1       -0.6615
      4 O          -1.9661    8.0264   -5.2405 O.co2   1  UNL1       -0.6615
      5 P          -4.1053   10.8983   -4.3351 P.3     1  UNL1        0.2491
      6 O          -3.4022   11.3035   -3.0818 O.co2   1  UNL1       -0.6337
      7 O          -5.2419    9.9432   -4.2336 O.co2   1  UNL1       -0.6337
      8 O          -2.8353   10.3489   -5.3559 O.3     1  UNL1       -0.0930
      9 O          -4.6324   12.2674   -5.0408 O.3     1  UNL1       -0.2057
     10 C          -5.3594   13.2306   -4.3037 C.3     1  UNL1        0.1232
     11 C          -6.5409   12.4987   -3.7380 C.3     1  UNL1        0.1214
     12 O          -6.2286   12.2620   -2.3612 O.3     1  UNL1       -0.3453
     13 C          -7.8479   13.3375   -3.7613 C.3     1  UNL1        0.1593
     14 O          -8.9876   12.4511   -3.9551 O.3     1  UNL1       -0.2421
     15 P          -9.1493   11.5356   -5.3877 P.3     1  UNL1       -0.0004
     16 O         -10.5617   11.8246   -5.7401 O.co2   1  UNL1       -0.6646
     17 O          -8.1363   12.1526   -6.2814 O.co2   1  UNL1       -0.6646
     18 O          -8.8187   10.1247   -5.0217 O.co2   1  UNL1       -0.6646
     19 C          -7.8382   13.9296   -2.3572 C.3     1  UNL1        0.1329
     20 O          -9.1638   14.3503   -1.9653 O.3     1  UNL1       -0.3845
     21 C          -7.3854   12.6459   -1.6339 C.3     1  UNL1        0.1668
     22 N          -6.9078   12.7984   -0.2412 N.ar    1  UNL1       -0.2855
     23 C          -7.5542   12.2331    0.8295 C.ar    1  UNL1        0.1004
     24 N          -6.9974   12.4814    1.9778 N.ar    1  UNL1       -0.2306
     25 C          -5.8608   13.2942    1.6663 C.ar    1  UNL1        0.1473
     26 C          -4.8219   13.8884    2.5026 C.ar    1  UNL1        0.1472
     27 N          -4.8485   13.8198    3.8478 N.pl3   1  UNL1       -0.3413
     28 N          -3.8434   14.5916    1.8740 N.ar    1  UNL1       -0.2188
     29 C          -3.9124   14.7082    0.5397 C.ar    1  UNL1        0.1205
     30 N          -4.8126   14.2258   -0.3510 N.ar    1  UNL1       -0.2159
     31 C          -5.7931   13.4981    0.2924 C.ar    1  UNL1        0.1674
     32 H          -4.7448   13.6384   -3.5012 H       1  UNL1        0.0631
     33 H          -5.6949   14.0313   -4.9627 H       1  UNL1        0.0631
     34 H          -6.6877   11.5538   -4.2612 H       1  UNL1        0.0650
     35 H          -7.8112   14.1152   -4.5241 H       1  UNL1        0.0694
     36 H          -7.1087   14.7333   -2.2581 H       1  UNL1        0.0667
     37 H          -8.1542   11.8758   -1.6964 H       1  UNL1        0.0866
     38 H          -8.4472   11.6343    0.7270 H       1  UNL1        0.1030
     39 H          -3.1132   15.2859    0.0995 H       1  UNL1        0.1048
     40 H          -4.6254   12.9519    4.3139 H       1  UNL1        0.1438
     41 H          -5.0916   14.6362    4.3904 H       1  UNL1        0.1438
     42 H          -9.2523   14.2833   -1.0118 H       1  UNL1        0.2101
@<TRIPOS>BOND
     1     1     2    1
     2     1     3    1
     3     1     4    1
     4     1     8    1
     5     5     6    1
     6     5     7    1
     7     5     8    1
     8     5     9    1
     9     9    10    1
    10    10    11    1
    11    11    12    1
    12    11    13    1
    13    12    21    1
    14    13    14    1
    15    13    19    1
    16    14    15    1
    17    15    16    1
    18    15    17    1
    19    15    18    1
    20    19    20    1
    21    19    21    1
    22    21    22    1
    23    22    23   ar
    24    22    31   ar
    25    23    24   ar
    26    24    25   ar
    27    25    26   ar
    28    25    31   ar
    29    26    27    1
    30    26    28   ar
    31    28    29   ar
    32    29    30   ar
    33    30    31   ar
    34    32    10    1
    35    33    10    1
    36    11    34    1
    37    13    35    1
    38    19    36    1
    39    21    37    1
    40    38    23    1
    41    39    29    1
    42    40    27    1
    43    41    27    1
    44    42    20    1
@<TRIPOS>SUBSTRUCTURE
     1 UNL1        1 TEMP              0 ****  ****    0 ROOT

########## Name:	17	3187.94  0.311859
@<TRIPOS>MOLECULE
af2_protein.mol217	
 42 44 1 0 0
SMALL
GASTEIGER


@<TRIPOS>ATOM
      1 P          -3.2475    8.6766   -4.6865 P.3     1  UNL1        0.0544
      2 O          -2.5881    8.6207   -6.0067 O.co2   1  UNL1       -0.6615
      3 O          -2.3109    8.8490   -3.5245 O.co2   1  UNL1       -0.6615
      4 O          -4.2541    7.6102   -4.4758 O.co2   1  UNL1       -0.6615
      5 P          -4.8264   11.1382   -3.5436 P.3     1  UNL1        0.2491
      6 O          -3.7942   11.2473   -2.4705 O.co2   1  UNL1       -0.6337
      7 O          -6.2107   10.7499   -3.1595 O.co2   1  UNL1       -0.6337
      8 O          -4.1097   10.0789   -4.6930 O.3     1  UNL1       -0.0930
      9 O          -4.8762   12.5816   -4.2950 O.3     1  UNL1       -0.2057
     10 C          -4.9940   13.7812   -3.5556 C.3     1  UNL1        0.1232
     11 C          -6.2390   13.6275   -2.7321 C.3     1  UNL1        0.1214
     12 O          -5.7930   13.3209   -1.4069 O.3     1  UNL1       -0.3453
     13 C          -7.0708   14.9353   -2.6319 C.3     1  UNL1        0.1593
     14 O          -8.4862   14.6022   -2.5442 O.3     1  UNL1       -0.2421
     15 P          -9.2762   13.7982   -3.8271 P.3     1  UNL1       -0.0004
     16 O         -10.4883   14.6417   -3.9748 O.co2   1  UNL1       -0.6646
     17 O          -8.2911   13.9088   -4.9330 O.co2   1  UNL1       -0.6646
     18 O          -9.4838   12.3895   -3.3729 O.co2   1  UNL1       -0.6646
     19 C          -6.5534   15.5086   -1.3181 C.3     1  UNL1        0.1329
     20 O          -7.4923   16.4565   -0.7634 O.3     1  UNL1       -0.3845
     21 C          -6.5319   14.1743   -0.5465 C.3     1  UNL1        0.1668
     22 N          -5.7772   14.1523    0.7266 N.ar    1  UNL1       -0.2855
     23 C          -6.3799   13.9402    1.9413 C.ar    1  UNL1        0.1004
     24 N          -5.5621   13.9651    2.9517 N.ar    1  UNL1       -0.2306
     25 C          -4.2759   14.2183    2.3765 C.ar    1  UNL1        0.1473
     26 C          -2.9464   14.3466    2.9663 C.ar    1  UNL1        0.1472
     27 N          -2.7410   14.3335    4.2978 N.pl3   1  UNL1       -0.3413
     28 N          -1.9065   14.5574    2.1171 N.ar    1  UNL1       -0.2188
     29 C          -2.1756   14.6543    0.8068 C.ar    1  UNL1        0.1205
     30 N          -3.3462   14.5679    0.1295 N.ar    1  UNL1       -0.2159
     31 C          -4.3949   14.3360    0.9960 C.ar    1  UNL1        0.1674
     32 H          -4.1258   13.9169   -2.9106 H       1  UNL1        0.0631
     33 H          -5.0945   14.6298   -4.2321 H       1  UNL1        0.0631
     34 H          -6.8538   12.8163   -3.1222 H       1  UNL1        0.0650
     35 H          -6.8679   15.6042   -3.4681 H       1  UNL1        0.0694
     36 H          -5.5561   15.9355   -1.4236 H       1  UNL1        0.0667
     37 H          -7.5437   13.7953   -0.4023 H       1  UNL1        0.0866
     38 H          -7.4407   13.7675    2.0484 H       1  UNL1        0.1030
     39 H          -1.3109   14.8316    0.1847 H       1  UNL1        0.1048
     40 H          -2.8051   13.4657    4.8103 H       1  UNL1        0.1438
     41 H          -2.5231   15.1918    4.7835 H       1  UNL1        0.1438
     42 H          -7.4165   16.4598    0.1936 H       1  UNL1        0.2101
@<TRIPOS>BOND
     1     1     2    1
     2     1     3    1
     3     1     4    1
     4     1     8    1
     5     5     6    1
     6     5     7    1
     7     5     8    1
     8     5     9    1
     9     9    10    1
    10    10    11    1
    11    11    12    1
    12    11    13    1
    13    12    21    1
    14    13    14    1
    15    13    19    1
    16    14    15    1
    17    15    16    1
    18    15    17    1
    19    15    18    1
    20    19    20    1
    21    19    21    1
    22    21    22    1
    23    22    23   ar
    24    22    31   ar
    25    23    24   ar
    26    24    25   ar
    27    25    26   ar
    28    25    31   ar
    29    26    27    1
    30    26    28   ar
    31    28    29   ar
    32    29    30   ar
    33    30    31   ar
    34    32    10    1
    35    33    10    1
    36    11    34    1
    37    13    35    1
    38    19    36    1
    39    21    37    1
    40    38    23    1
    41    39    29    1
    42    40    27    1
    43    41    27    1
    44    42    20    1
@<TRIPOS>SUBSTRUCTURE
     1 UNL1        1 TEMP              0 ****  ****    0 ROOT

########## Name:	18	2869.81  0.334857
@<TRIPOS>MOLECULE
af2_protein.mol218	
 42 44 1 0 0
SMALL
GASTEIGER


@<TRIPOS>ATOM
      1 P          -1.5777   10.0696   -4.3798 P.3     1  UNL1        0.0544
      2 O          -0.9748    8.7749   -4.0041 O.co2   1  UNL1       -0.6615
      3 O          -2.2891   10.0697   -5.7030 O.co2   1  UNL1       -0.6615
      4 O          -0.6686   11.2259   -4.2021 O.co2   1  UNL1       -0.6615
      5 P          -4.2145   11.2692   -3.1687 P.3     1  UNL1        0.2491
      6 O          -4.8345   11.1608   -4.5226 O.co2   1  UNL1       -0.6337
      7 O          -3.9720   12.6252   -2.6060 O.co2   1  UNL1       -0.6337
      8 O          -2.7910   10.3128   -3.2942 O.3     1  UNL1       -0.0930
      9 O          -5.1733   10.4410   -2.1463 O.3     1  UNL1       -0.2057
     10 C          -6.5692   10.6651   -2.1179 C.3     1  UNL1        0.1232
     11 C          -6.7375   12.1318   -1.8493 C.3     1  UNL1        0.1214
     12 O          -7.0692   12.7223   -3.1103 O.3     1  UNL1       -0.3453
     13 C          -7.9147   12.4455   -0.8860 C.3     1  UNL1        0.1593
     14 O          -7.5893   13.6232   -0.0927 O.3     1  UNL1       -0.2421
     15 P          -6.2653   13.6120    0.9860 P.3     1  UNL1       -0.0004
     16 O          -6.8994   14.1736    2.2046 O.co2   1  UNL1       -0.6646
     17 O          -5.9216   12.1691    1.0606 O.co2   1  UNL1       -0.6646
     18 O          -5.1944   14.4317    0.3418 O.co2   1  UNL1       -0.6646
     19 C          -9.0329   12.7375   -1.8793 C.3     1  UNL1        0.1329
     20 O         -10.0836   13.5127   -1.2604 O.3     1  UNL1       -0.3845
     21 C          -8.1796   13.5693   -2.8570 C.3     1  UNL1        0.1668
     22 N          -8.7576   13.8246   -4.1956 N.ar    1  UNL1       -0.2855
     23 C          -9.0762   15.0847   -4.6366 C.ar    1  UNL1        0.1004
     24 N          -9.5831   15.1162   -5.8334 N.ar    1  UNL1       -0.2306
     25 C          -9.6156   13.7483   -6.2543 C.ar    1  UNL1        0.1473
     26 C         -10.0529   13.1146   -7.4949 C.ar    1  UNL1        0.1472
     27 N         -10.6391   13.8046   -8.4925 N.pl3   1  UNL1       -0.3413
     28 N          -9.9149   11.7657   -7.5869 N.ar    1  UNL1       -0.2188
     29 C          -9.4101   11.1126   -6.5298 C.ar    1  UNL1        0.1205
     30 N          -8.9790   11.5641   -5.3270 N.ar    1  UNL1       -0.2159
     31 C          -9.1054   12.9361   -5.2474 C.ar    1  UNL1        0.1674
     32 H          -7.0162   10.4003   -3.0762 H       1  UNL1        0.0631
     33 H          -7.0258   10.0826   -1.3178 H       1  UNL1        0.0631
     34 H          -5.8099   12.5556   -1.4646 H       1  UNL1        0.0650
     35 H          -8.1539   11.5904   -0.2538 H       1  UNL1        0.0694
     36 H          -9.4152   11.8280   -2.3427 H       1  UNL1        0.0667
     37 H          -7.8567   14.5006   -2.3917 H       1  UNL1        0.0866
     38 H          -8.9195   15.9723   -4.0416 H       1  UNL1        0.1030
     39 H          -9.3343   10.0431   -6.6595 H       1  UNL1        0.1048
     40 H         -10.0851   14.4093   -9.0820 H       1  UNL1        0.1438
     41 H         -11.6328   13.7173   -8.6508 H       1  UNL1        0.1438
     42 H         -10.5130   14.0576   -1.9240 H       1  UNL1        0.2101
@<TRIPOS>BOND
     1     1     2    1
     2     1     3    1
     3     1     4    1
     4     1     8    1
     5     5     6    1
     6     5     7    1
     7     5     8    1
     8     5     9    1
     9     9    10    1
    10    10    11    1
    11    11    12    1
    12    11    13    1
    13    12    21    1
    14    13    14    1
    15    13    19    1
    16    14    15    1
    17    15    16    1
    18    15    17    1
    19    15    18    1
    20    19    20    1
    21    19    21    1
    22    21    22    1
    23    22    23   ar
    24    22    31   ar
    25    23    24   ar
    26    24    25   ar
    27    25    26   ar
    28    25    31   ar
    29    26    27    1
    30    26    28   ar
    31    28    29   ar
    32    29    30   ar
    33    30    31   ar
    34    32    10    1
    35    33    10    1
    36    11    34    1
    37    13    35    1
    38    19    36    1
    39    21    37    1
    40    38    23    1
    41    39    29    1
    42    40    27    1
    43    41    27    1
    44    42    20    1
@<TRIPOS>SUBSTRUCTURE
     1 UNL1        1 TEMP              0 ****  ****    0 ROOT

########## Name:	19	3421.79  0.302489
@<TRIPOS>MOLECULE
af2_protein.mol219	
 42 44 1 0 0
SMALL
GASTEIGER


@<TRIPOS>ATOM
      1 P          -1.5658    9.8641   -5.7383 P.3     1  UNL1        0.0544
      2 O          -1.3205   10.0944   -7.1763 O.co2   1  UNL1       -0.6615
      3 O          -0.4816   10.3681   -4.8286 O.co2   1  UNL1       -0.6615
      4 O          -2.0049    8.4853   -5.4205 O.co2   1  UNL1       -0.6615
      5 P          -3.5699   11.4909   -3.9505 P.3     1  UNL1        0.2491
      6 O          -2.4015   11.9757   -3.1575 O.co2   1  UNL1       -0.6337
      7 O          -4.5487   10.5852   -3.2903 O.co2   1  UNL1       -0.6337
      8 O          -2.8539   10.8173   -5.3614 O.3     1  UNL1       -0.0930
      9 O          -4.3559   12.8131   -4.4837 O.3     1  UNL1       -0.2057
     10 C          -4.7044   13.8574   -3.5964 C.3     1  UNL1        0.1232
     11 C          -5.5270   13.2142   -2.5187 C.3     1  UNL1        0.1214
     12 O          -4.6554   13.0826   -1.3909 O.3     1  UNL1       -0.3453
     13 C          -6.7239   14.0903   -2.0582 C.3     1  UNL1        0.1593
     14 O          -7.8319   13.2287   -1.6686 O.3     1  UNL1       -0.2421
     15 P          -8.5843   12.2030   -2.8082 P.3     1  UNL1       -0.0004
     16 O         -10.0136   12.5077   -2.5501 O.co2   1  UNL1       -0.6646
     17 O          -8.0534   12.7101   -4.0992 O.co2   1  UNL1       -0.6646
     18 O          -8.1206   10.8174   -2.4936 O.co2   1  UNL1       -0.6646
     19 C          -6.1193   14.7965   -0.8507 C.3     1  UNL1        0.1329
     20 O          -7.1532   15.2914    0.0289 O.3     1  UNL1       -0.3845
     21 C          -5.3934   13.5632   -0.2778 C.3     1  UNL1        0.1668
     22 N          -4.3678   13.8152    0.7595 N.ar    1  UNL1       -0.2855
     23 C          -4.4920   13.3623    2.0491 C.ar    1  UNL1        0.1004
     24 N          -3.4998   13.6869    2.8240 N.ar    1  UNL1       -0.2306
     25 C          -2.6098   14.4334    1.9873 C.ar    1  UNL1        0.1473
     26 C          -1.3169   15.0608    2.2452 C.ar    1  UNL1        0.1472
     27 N          -0.7662   15.1051    3.4740 N.pl3   1  UNL1       -0.3413
     28 N          -0.7046   15.6769    1.2000 N.ar    1  UNL1       -0.2188
     29 C          -1.3372   15.6844    0.0175 C.ar    1  UNL1        0.1205
     30 N          -2.5286   15.1593   -0.3584 N.ar    1  UNL1       -0.2159
     31 C          -3.1362   14.5201    0.7031 C.ar    1  UNL1        0.1674
     32 H          -3.8085   14.3103   -3.1716 H       1  UNL1        0.0631
     33 H          -5.2939   14.6112   -4.1182 H       1  UNL1        0.0631
     34 H          -5.8775   12.2343   -2.8432 H       1  UNL1        0.0650
     35 H          -7.0209   14.8003   -2.8300 H       1  UNL1        0.0694
     36 H          -5.4220   15.5813   -1.1436 H       1  UNL1        0.0667
     37 H          -6.1107   12.8161    0.0618 H       1  UNL1        0.0866
     38 H          -5.3397   12.7865    2.3903 H       1  UNL1        0.1030
     39 H          -0.8058   16.1971   -0.7706 H       1  UNL1        0.1048
     40 H          -0.3604   14.2721    3.8760 H       1  UNL1        0.1438
     41 H          -0.7593   15.9713    3.9933 H       1  UNL1        0.1438
     42 H          -6.8258   15.3068    0.9313 H       1  UNL1        0.2101
@<TRIPOS>BOND
     1     1     2    1
     2     1     3    1
     3     1     4    1
     4     1     8    1
     5     5     6    1
     6     5     7    1
     7     5     8    1
     8     5     9    1
     9     9    10    1
    10    10    11    1
    11    11    12    1
    12    11    13    1
    13    12    21    1
    14    13    14    1
    15    13    19    1
    16    14    15    1
    17    15    16    1
    18    15    17    1
    19    15    18    1
    20    19    20    1
    21    19    21    1
    22    21    22    1
    23    22    23   ar
    24    22    31   ar
    25    23    24   ar
    26    24    25   ar
    27    25    26   ar
    28    25    31   ar
    29    26    27    1
    30    26    28   ar
    31    28    29   ar
    32    29    30   ar
    33    30    31   ar
    34    32    10    1
    35    33    10    1
    36    11    34    1
    37    13    35    1
    38    19    36    1
    39    21    37    1
    40    38    23    1
    41    39    29    1
    42    40    27    1
    43    41    27    1
    44    42    20    1
@<TRIPOS>SUBSTRUCTURE
     1 UNL1        1 TEMP              0 ****  ****    0 ROOT

