########## Name:	0	-381.177  0.966527
@<TRIPOS>MOLECULE
af2_protein.mol20	
 42 44 1 0 0
SMALL
GASTEIGER


@<TRIPOS>ATOM
      1 P          -0.9102    9.6001   -4.3405 P.3     1  UNL1        0.0544
      2 O          -0.4366    9.4929   -5.7352 O.co2   1  UNL1       -0.6615
      3 O          -0.0847   10.4997   -3.4653 O.co2   1  UNL1       -0.6615
      4 O          -1.2207    8.2944   -3.7131 O.co2   1  UNL1       -0.6615
      5 P          -3.3751   11.3023   -3.3996 P.3     1  UNL1        0.2491
      6 O          -2.4257   12.1953   -2.6714 O.co2   1  UNL1       -0.6337
      7 O          -4.3209   10.4734   -2.6041 O.co2   1  UNL1       -0.6337
      8 O          -2.3565   10.3807   -4.4340 O.3     1  UNL1       -0.0930
      9 O          -4.2248   12.2566   -4.4085 O.3     1  UNL1       -0.2057
     10 C          -4.8451   13.4378   -3.9402 C.3     1  UNL1        0.1232
     11 C          -6.1922   13.0130   -3.4337 C.3     1  UNL1        0.1214
     12 O          -6.0133   12.7330   -2.0414 O.3     1  UNL1       -0.3453
     13 C          -7.2626   14.1343   -3.5296 C.3     1  UNL1        0.1593
     14 O          -8.5676   13.5367   -3.7787 O.3     1  UNL1       -0.2421
     15 P          -8.8683   12.6605   -5.2135 P.3     1  UNL1       -0.0004
     16 O         -10.1538   13.2666   -5.6409 O.co2   1  UNL1       -0.6646
     17 O          -7.6954   13.0075   -6.0558 O.co2   1  UNL1       -0.6646
     18 O          -8.8971   11.2178   -4.8240 O.co2   1  UNL1       -0.6646
     19 C          -7.1841   14.7314   -2.1298 C.3     1  UNL1        0.1329
     20 O          -8.3916   15.4577   -1.8100 O.3     1  UNL1       -0.3845
     21 C          -7.0823   13.3897   -1.3777 C.3     1  UNL1        0.1668
     22 N          -6.6524   13.4495    0.0375 N.ar    1  UNL1       -0.2855
     23 C          -7.4661   13.0697    1.0754 C.ar    1  UNL1        0.1004
     24 N          -6.9245   13.2000    2.2502 N.ar    1  UNL1       -0.2306
     25 C          -5.6147   13.7182    1.9949 C.ar    1  UNL1        0.1473
     26 C          -4.5083   14.0664    2.8818 C.ar    1  UNL1        0.1472
     27 N          -4.6173   14.0286    4.2240 N.pl3   1  UNL1       -0.3413
     28 N          -3.3619   14.5098    2.3020 N.ar    1  UNL1       -0.2188
     29 C          -3.3348   14.6167    0.9654 C.ar    1  UNL1        0.1205
     30 N          -4.2777   14.3438    0.0311 N.ar    1  UNL1       -0.2159
     31 C          -5.4325   13.8773    0.6255 C.ar    1  UNL1        0.1674
     32 H          -4.1927   13.7037   -3.1085 H       1  UNL1        0.0631
     33 H          -4.9497   14.2836   -4.6196 H       1  UNL1        0.0631
     34 H          -6.5307   12.1202   -3.9595 H       1  UNL1        0.0650
     35 H          -7.0062   14.8687   -4.2931 H       1  UNL1        0.0694
     36 H          -6.3299   15.3959   -2.2592 H       1  UNL1        0.0667
     37 H          -8.0065   12.8204   -1.4768 H       1  UNL1        0.0866
     38 H          -8.4686   12.6953    0.9291 H       1  UNL1        0.1030
     39 H          -2.4013   14.9834    0.5650 H       1  UNL1        0.1048
     40 H          -4.6280   13.1407    4.7052 H       1  UNL1        0.1438
     41 H          -4.6885   14.8884    4.7492 H       1  UNL1        0.1438
     42 H          -8.4169   15.6379   -0.8674 H       1  UNL1        0.2101
@<TRIPOS>BOND
     1     1     2    1
     2     1     3    1
     3     1     4    1
     4     1     8    1
     5     5     6    1
     6     5     7    1
     7     5     8    1
     8     5     9    1
     9     9    10    1
    10    10    11    1
    11    11    12    1
    12    11    13    1
    13    12    21    1
    14    13    14    1
    15    13    19    1
    16    14    15    1
    17    15    16    1
    18    15    17    1
    19    15    18    1
    20    19    20    1
    21    19    21    1
    22    21    22    1
    23    22    23   ar
    24    22    31   ar
    25    23    24   ar
    26    24    25   ar
    27    25    26   ar
    28    25    31   ar
    29    26    27    1
    30    26    28   ar
    31    28    29   ar
    32    29    30   ar
    33    30    31   ar
    34    32    10    1
    35    33    10    1
    36    11    34    1
    37    13    35    1
    38    19    36    1
    39    21    37    1
    40    38    23    1
    41    39    29    1
    42    40    27    1
    43    41    27    1
    44    42    20    1
@<TRIPOS>SUBSTRUCTURE
     1 UNL1        1 TEMP              0 ****  ****    0 ROOT

########## Name:	1	-378.333  0.964559
@<TRIPOS>MOLECULE
af2_protein.mol21	
 42 44 1 0 0
SMALL
GASTEIGER


@<TRIPOS>ATOM
      1 P          -1.9179    9.0019   -4.3788 P.3     1  UNL1        0.0544
      2 O          -1.2162    8.9370   -5.6766 O.co2   1  UNL1       -0.6615
      3 O          -1.1175    9.6112   -3.2629 O.co2   1  UNL1       -0.6615
      4 O          -2.5874    7.7364   -3.9978 O.co2   1  UNL1       -0.6615
      5 P          -4.1772   11.0504   -3.6318 P.3     1  UNL1        0.2491
      6 O          -3.2635   11.6138   -2.5941 O.co2   1  UNL1       -0.6337
      7 O          -5.4084   10.3441   -3.1848 O.co2   1  UNL1       -0.6337
      8 O          -3.1422   10.0793   -4.6027 O.3     1  UNL1       -0.0930
      9 O          -4.6945   12.2239   -4.6346 O.3     1  UNL1       -0.2057
     10 C          -5.2070   13.4396   -4.1261 C.3     1  UNL1        0.1232
     11 C          -6.4610   13.0721   -3.3883 C.3     1  UNL1        0.1214
     12 O          -6.0595   12.8305   -2.0358 O.3     1  UNL1       -0.3453
     13 C          -7.5043   14.2219   -3.3457 C.3     1  UNL1        0.1593
     14 O          -8.8469   13.6567   -3.3534 O.3     1  UNL1       -0.2421
     15 P          -9.4042   12.7456   -4.6860 P.3     1  UNL1       -0.0004
     16 O         -10.8186   13.1904   -4.7504 O.co2   1  UNL1       -0.6646
     17 O          -8.5391   13.2288   -5.7922 O.co2   1  UNL1       -0.6646
     18 O          -9.1612   11.3114   -4.3427 O.co2   1  UNL1       -0.6646
     19 C          -7.1787   14.8598   -2.0006 C.3     1  UNL1        0.1329
     20 O          -8.2975   15.6322   -1.5114 O.3     1  UNL1       -0.3845
     21 C          -6.9862   13.5399   -1.2280 C.3     1  UNL1        0.1668
     22 N          -6.3250   13.6309    0.0932 N.ar    1  UNL1       -0.2855
     23 C          -6.9635   13.3087    1.2646 C.ar    1  UNL1        0.1004
     24 N          -6.2305   13.4592    2.3279 N.ar    1  UNL1       -0.2306
     25 C          -4.9692   13.9291    1.8405 C.ar    1  UNL1        0.1473
     26 C          -3.7222   14.2710    2.5186 C.ar    1  UNL1        0.1472
     27 N          -3.6067   14.2787    3.8609 N.pl3   1  UNL1       -0.3413
     28 N          -2.6778   14.6610    1.7413 N.ar    1  UNL1       -0.2188
     29 C          -2.8713   14.7251    0.4157 C.ar    1  UNL1        0.1205
     30 N          -3.9631   14.4519   -0.3390 N.ar    1  UNL1       -0.2159
     31 C          -5.0139   14.0396    0.4550 C.ar    1  UNL1        0.1674
     32 H          -4.4187   13.7115   -3.4241 H       1  UNL1        0.0631
     33 H          -5.4025   14.2665   -4.8087 H       1  UNL1        0.0631
     34 H          -6.9044   12.1739   -3.8182 H       1  UNL1        0.0650
     35 H          -7.3606   14.9238   -4.1670 H       1  UNL1        0.0694
     36 H          -6.2538   15.4364   -2.0020 H       1  UNL1        0.0667
     37 H          -7.9278   12.9961   -1.1520 H       1  UNL1        0.0866
     38 H          -7.9853   12.9606    1.3001 H       1  UNL1        0.1030
     39 H          -2.0087   15.0505   -0.1468 H       1  UNL1        0.1048
     40 H          -3.5591   13.4070    4.3688 H       1  UNL1        0.1438
     41 H          -3.5680   15.1562    4.3593 H       1  UNL1        0.1438
     42 H          -8.3075   15.6092   -0.5517 H       1  UNL1        0.2101
@<TRIPOS>BOND
     1     1     2    1
     2     1     3    1
     3     1     4    1
     4     1     8    1
     5     5     6    1
     6     5     7    1
     7     5     8    1
     8     5     9    1
     9     9    10    1
    10    10    11    1
    11    11    12    1
    12    11    13    1
    13    12    21    1
    14    13    14    1
    15    13    19    1
    16    14    15    1
    17    15    16    1
    18    15    17    1
    19    15    18    1
    20    19    20    1
    21    19    21    1
    22    21    22    1
    23    22    23   ar
    24    22    31   ar
    25    23    24   ar
    26    24    25   ar
    27    25    26   ar
    28    25    31   ar
    29    26    27    1
    30    26    28   ar
    31    28    29   ar
    32    29    30   ar
    33    30    31   ar
    34    32    10    1
    35    33    10    1
    36    11    34    1
    37    13    35    1
    38    19    36    1
    39    21    37    1
    40    38    23    1
    41    39    29    1
    42    40    27    1
    43    41    27    1
    44    42    20    1
@<TRIPOS>SUBSTRUCTURE
     1 UNL1        1 TEMP              0 ****  ****    0 ROOT

########## Name:	2	-374.756  0.964364
@<TRIPOS>MOLECULE
af2_protein.mol22	
 42 44 1 0 0
SMALL
GASTEIGER


@<TRIPOS>ATOM
      1 P          -1.6463    8.7641   -4.0175 P.3     1  UNL1        0.0544
      2 O          -2.3597    7.6224   -3.4105 O.co2   1  UNL1       -0.6615
      3 O          -1.5338    8.7090   -5.5146 O.co2   1  UNL1       -0.6615
      4 O          -0.3689    9.0963   -3.3448 O.co2   1  UNL1       -0.6615
      5 P          -2.8208   11.6515   -4.3947 P.3     1  UNL1        0.2491
      6 O          -2.2288   12.8401   -5.0773 O.co2   1  UNL1       -0.6337
      7 O          -2.1791   11.1580   -3.1461 O.co2   1  UNL1       -0.6337
      8 O          -2.6159   10.0684   -3.7555 O.3     1  UNL1       -0.0930
      9 O          -4.3658   12.0331   -4.0514 O.3     1  UNL1       -0.2057
     10 C          -4.6871   13.2510   -3.4089 C.3     1  UNL1        0.1232
     11 C          -6.1102   13.1055   -2.9558 C.3     1  UNL1        0.1214
     12 O          -6.0456   12.8406   -1.5506 O.3     1  UNL1       -0.3453
     13 C          -6.9423   14.4057   -3.1272 C.3     1  UNL1        0.1593
     14 O          -8.3258   14.0587   -3.4228 O.3     1  UNL1       -0.2421
     15 P          -8.7288   13.2105   -4.8493 P.3     1  UNL1       -0.0004
     16 O          -9.8563   14.0354   -5.3499 O.co2   1  UNL1       -0.6646
     17 O          -7.4775   13.3023   -5.6440 O.co2   1  UNL1       -0.6646
     18 O          -9.0483   11.8125   -4.4283 O.co2   1  UNL1       -0.6646
     19 C          -6.8091   15.0209   -1.7394 C.3     1  UNL1        0.1329
     20 O          -7.8679   15.9726   -1.4929 O.3     1  UNL1       -0.3845
     21 C          -6.9961   13.7086   -0.9526 C.3     1  UNL1        0.1668
     22 N          -6.6213   13.7305    0.4793 N.ar    1  UNL1       -0.2855
     23 C          -7.5346   13.5447    1.4868 C.ar    1  UNL1        0.1004
     24 N          -7.0270   13.6070    2.6821 N.ar    1  UNL1       -0.2306
     25 C          -5.6330   13.8593    2.4760 C.ar    1  UNL1        0.1473
     26 C          -4.5180   14.0192    3.4050 C.ar    1  UNL1        0.1472
     27 N          -4.6874   14.0452    4.7413 N.pl3   1  UNL1       -0.3413
     28 N          -3.2851   14.2188    2.8690 N.ar    1  UNL1       -0.2188
     29 C          -3.1831   14.2765    1.5330 C.ar    1  UNL1        0.1205
     30 N          -4.1214   14.1579    0.5625 N.ar    1  UNL1       -0.2159
     31 C          -5.3675   13.9377    1.1132 C.ar    1  UNL1        0.1674
     32 H          -4.0308   13.4146   -2.5541 H       1  UNL1        0.0631
     33 H          -4.6004   14.0795   -4.1118 H       1  UNL1        0.0631
     34 H          -6.5908   12.2768   -3.4759 H       1  UNL1        0.0650
     35 H          -6.5192   15.0537   -3.8948 H       1  UNL1        0.0694
     36 H          -5.8236   15.4511   -1.5614 H       1  UNL1        0.0667
     37 H          -8.0070   13.3219   -1.0813 H       1  UNL1        0.0866
     38 H          -8.5832   13.3626    1.3028 H       1  UNL1        0.1030
     39 H          -2.1811   14.4468    1.1680 H       1  UNL1        0.1048
     40 H          -4.8871   13.1910    5.2419 H       1  UNL1        0.1438
     41 H          -4.6149   14.9190    5.2426 H       1  UNL1        0.1438
     42 H          -8.0698   15.9913   -0.5546 H       1  UNL1        0.2101
@<TRIPOS>BOND
     1     1     2    1
     2     1     3    1
     3     1     4    1
     4     1     8    1
     5     5     6    1
     6     5     7    1
     7     5     8    1
     8     5     9    1
     9     9    10    1
    10    10    11    1
    11    11    12    1
    12    11    13    1
    13    12    21    1
    14    13    14    1
    15    13    19    1
    16    14    15    1
    17    15    16    1
    18    15    17    1
    19    15    18    1
    20    19    20    1
    21    19    21    1
    22    21    22    1
    23    22    23   ar
    24    22    31   ar
    25    23    24   ar
    26    24    25   ar
    27    25    26   ar
    28    25    31   ar
    29    26    27    1
    30    26    28   ar
    31    28    29   ar
    32    29    30   ar
    33    30    31   ar
    34    32    10    1
    35    33    10    1
    36    11    34    1
    37    13    35    1
    38    19    36    1
    39    21    37    1
    40    38    23    1
    41    39    29    1
    42    40    27    1
    43    41    27    1
    44    42    20    1
@<TRIPOS>SUBSTRUCTURE
     1 UNL1        1 TEMP              0 ****  ****    0 ROOT

########## Name:	3	-393.111  0.967459
@<TRIPOS>MOLECULE
af2_protein.mol23	
 42 44 1 0 0
SMALL
GASTEIGER


@<TRIPOS>ATOM
      1 P          -2.9981    8.0768   -3.3207 P.3     1  UNL1        0.0544
      2 O          -4.2427    7.2892   -3.2132 O.co2   1  UNL1       -0.6615
      3 O          -2.2364    7.8743   -4.5997 O.co2   1  UNL1       -0.6615
      4 O          -2.1437    8.0117   -2.1122 O.co2   1  UNL1       -0.6615
      5 P          -2.8379   11.1536   -3.9261 P.3     1  UNL1        0.2491
      6 O          -1.6113   11.9486   -3.6219 O.co2   1  UNL1       -0.6337
      7 O          -3.3021   10.1548   -2.9254 O.co2   1  UNL1       -0.6337
      8 O          -3.4862    9.6463   -3.4116 O.3     1  UNL1       -0.0930
      9 O          -4.1420   12.0992   -4.1619 O.3     1  UNL1       -0.2057
     10 C          -4.4562   13.1407   -3.2587 C.3     1  UNL1        0.1232
     11 C          -5.8343   12.8330   -2.7510 C.3     1  UNL1        0.1214
     12 O          -5.6919   12.6249   -1.3419 O.3     1  UNL1       -0.3453
     13 C          -6.8291   14.0123   -2.9298 C.3     1  UNL1        0.1593
     14 O          -8.1664   13.4850   -3.1655 O.3     1  UNL1       -0.2421
     15 P          -8.5043   12.5464   -4.5516 P.3     1  UNL1       -0.0004
     16 O          -9.7425   13.2065   -5.0350 O.co2   1  UNL1       -0.6646
     17 O          -7.3006   12.7680   -5.3930 O.co2   1  UNL1       -0.6646
     18 O          -8.6309   11.1340   -4.0794 O.co2   1  UNL1       -0.6646
     19 C          -6.7305   14.6848   -1.5659 C.3     1  UNL1        0.1329
     20 O          -7.8927   15.5039   -1.3090 O.3     1  UNL1       -0.3845
     21 C          -6.7249   13.3862   -0.7354 C.3     1  UNL1        0.1668
     22 N          -6.3103   13.5021    0.6809 N.ar    1  UNL1       -0.2855
     23 C          -7.1602   13.2367    1.7254 C.ar    1  UNL1        0.1004
     24 N          -6.6266   13.4016    2.8994 N.ar    1  UNL1       -0.2306
     25 C          -5.2830   13.8197    2.6364 C.ar    1  UNL1        0.1473
     26 C          -4.1681   14.1487    3.5198 C.ar    1  UNL1        0.1472
     27 N          -4.2966   14.1974    4.8600 N.pl3   1  UNL1       -0.3413
     28 N          -2.9881   14.4835    2.9345 N.ar    1  UNL1       -0.2188
     29 C          -2.9369   14.5093    1.5946 C.ar    1  UNL1        0.1205
     30 N          -3.8831   14.2421    0.6621 N.ar    1  UNL1       -0.2159
     31 C          -5.0732   13.8857    1.2632 C.ar    1  UNL1        0.1674
     32 H          -3.7989   13.4134   -2.4331 H       1  UNL1        0.0631
     33 H          -4.4975   13.9499   -3.9878 H       1  UNL1        0.0631
     34 H          -6.2227   11.9339   -3.2295 H       1  UNL1        0.0650
     35 H          -6.5161   14.6825   -3.7303 H       1  UNL1        0.0694
     36 H          -5.8026   15.2456   -1.4533 H       1  UNL1        0.0667
     37 H          -7.6825   12.8718   -0.8167 H       1  UNL1        0.0866
     38 H          -8.1827   12.9187    1.5843 H       1  UNL1        0.1030
     39 H          -1.9766   14.7917    1.1892 H       1  UNL1        0.1048
     40 H          -4.3706   13.3419    5.3918 H       1  UNL1        0.1438
     41 H          -4.3192   15.0894    5.3331 H       1  UNL1        0.1438
     42 H          -8.0557   15.5413   -0.3637 H       1  UNL1        0.2101
@<TRIPOS>BOND
     1     1     2    1
     2     1     3    1
     3     1     4    1
     4     1     8    1
     5     5     6    1
     6     5     7    1
     7     5     8    1
     8     5     9    1
     9     9    10    1
    10    10    11    1
    11    11    12    1
    12    11    13    1
    13    12    21    1
    14    13    14    1
    15    13    19    1
    16    14    15    1
    17    15    16    1
    18    15    17    1
    19    15    18    1
    20    19    20    1
    21    19    21    1
    22    21    22    1
    23    22    23   ar
    24    22    31   ar
    25    23    24   ar
    26    24    25   ar
    27    25    26   ar
    28    25    31   ar
    29    26    27    1
    30    26    28   ar
    31    28    29   ar
    32    29    30   ar
    33    30    31   ar
    34    32    10    1
    35    33    10    1
    36    11    34    1
    37    13    35    1
    38    19    36    1
    39    21    37    1
    40    38    23    1
    41    39    29    1
    42    40    27    1
    43    41    27    1
    44    42    20    1
@<TRIPOS>SUBSTRUCTURE
     1 UNL1        1 TEMP              0 ****  ****    0 ROOT

########## Name:	4	-402.92  0.962604
@<TRIPOS>MOLECULE
af2_protein.mol24	
 42 44 1 0 0
SMALL
GASTEIGER


@<TRIPOS>ATOM
      1 P          -1.8646    9.0709   -3.4128 P.3     1  UNL1        0.0544
      2 O          -2.4170    8.0609   -4.3378 O.co2   1  UNL1       -0.6615
      3 O          -0.4817    9.5464   -3.7566 O.co2   1  UNL1       -0.6615
      4 O          -2.0267    8.7225   -1.9820 O.co2   1  UNL1       -0.6615
      5 P          -2.6193   12.1174   -3.5032 P.3     1  UNL1        0.2491
      6 O          -1.6771   13.1250   -2.9323 O.co2   1  UNL1       -0.6337
      7 O          -3.2604   11.1425   -2.5797 O.co2   1  UNL1       -0.6337
      8 O          -2.7946   10.4116   -3.6312 O.3     1  UNL1       -0.0930
      9 O          -3.8967   12.7204   -4.3126 O.3     1  UNL1       -0.2057
     10 C          -4.6742   13.7671   -3.7656 C.3     1  UNL1        0.1232
     11 C          -5.8824   13.1046   -3.1712 C.3     1  UNL1        0.1214
     12 O          -5.5680   12.8889   -1.7915 O.3     1  UNL1       -0.3453
     13 C          -7.1500   14.0014   -3.2053 C.3     1  UNL1        0.1593
     14 O          -8.3306   13.1634   -3.3666 O.3     1  UNL1       -0.2421
     15 P          -8.5475   12.2201   -4.7736 P.3     1  UNL1       -0.0004
     16 O          -9.9485   12.5642   -5.1216 O.co2   1  UNL1       -0.6646
     17 O          -7.5160   12.7672   -5.6915 O.co2   1  UNL1       -0.6646
     18 O          -8.2778   10.8053   -4.3741 O.co2   1  UNL1       -0.6646
     19 C          -7.1000   14.6280   -1.8171 C.3     1  UNL1        0.1329
     20 O          -8.4013   15.1186   -1.4251 O.3     1  UNL1       -0.3845
     21 C          -6.6991   13.3437   -1.0647 C.3     1  UNL1        0.1668
     22 N          -6.2018   13.5096    0.3196 N.ar    1  UNL1       -0.2855
     23 C          -6.9633   13.2088    1.4211 C.ar    1  UNL1        0.1004
     24 N          -6.3663   13.4269    2.5553 N.ar    1  UNL1       -0.2306
     25 C          -5.0722   13.9245    2.1990 C.ar    1  UNL1        0.1473
     26 C          -3.9257   14.3381    3.0028 C.ar    1  UNL1        0.1472
     27 N          -3.9698   14.4013    4.3479 N.pl3   1  UNL1       -0.3413
     28 N          -2.8100   14.7368    2.3368 N.ar    1  UNL1       -0.2188
     29 C          -2.8477   14.7430    0.9963 C.ar    1  UNL1        0.1205
     30 N          -3.8334   14.4008    0.1316 N.ar    1  UNL1       -0.2159
     31 C          -4.9566   13.9803    0.8143 C.ar    1  UNL1        0.1674
     32 H          -4.0341   14.1667   -2.9790 H       1  UNL1        0.0631
     33 H          -4.9793   14.5653   -4.4422 H       1  UNL1        0.0631
     34 H          -6.0770   12.1544   -3.6686 H       1  UNL1        0.0650
     35 H          -7.0853   14.7569   -3.9882 H       1  UNL1        0.0694
     36 H          -6.3386   15.4064   -1.7695 H       1  UNL1        0.0667
     37 H          -7.6250   12.7686   -1.0762 H       1  UNL1        0.0866
     38 H          -7.9703   12.8245    1.3518 H       1  UNL1        0.1030
     39 H          -1.9358   15.0786    0.5249 H       1  UNL1        0.1048
     40 H          -3.9542   13.5520    4.8942 H       1  UNL1        0.1438
     41 H          -4.0188   15.2981    4.8099 H       1  UNL1        0.1438
     42 H          -8.4751   15.1016   -0.4681 H       1  UNL1        0.2101
@<TRIPOS>BOND
     1     1     2    1
     2     1     3    1
     3     1     4    1
     4     1     8    1
     5     5     6    1
     6     5     7    1
     7     5     8    1
     8     5     9    1
     9     9    10    1
    10    10    11    1
    11    11    12    1
    12    11    13    1
    13    12    21    1
    14    13    14    1
    15    13    19    1
    16    14    15    1
    17    15    16    1
    18    15    17    1
    19    15    18    1
    20    19    20    1
    21    19    21    1
    22    21    22    1
    23    22    23   ar
    24    22    31   ar
    25    23    24   ar
    26    24    25   ar
    27    25    26   ar
    28    25    31   ar
    29    26    27    1
    30    26    28   ar
    31    28    29   ar
    32    29    30   ar
    33    30    31   ar
    34    32    10    1
    35    33    10    1
    36    11    34    1
    37    13    35    1
    38    19    36    1
    39    21    37    1
    40    38    23    1
    41    39    29    1
    42    40    27    1
    43    41    27    1
    44    42    20    1
@<TRIPOS>SUBSTRUCTURE
     1 UNL1        1 TEMP              0 ****  ****    0 ROOT

########## Name:	5	-394.554  0.970268
@<TRIPOS>MOLECULE
af2_protein.mol25	
 42 44 1 0 0
SMALL
GASTEIGER


@<TRIPOS>ATOM
      1 P          -1.4112    8.7193   -3.2065 P.3     1  UNL1        0.0544
      2 O          -1.8652    7.9266   -2.0461 O.co2   1  UNL1       -0.6615
      3 O          -1.5943    8.0454   -4.5366 O.co2   1  UNL1       -0.6615
      4 O          -0.0673    9.3180   -3.0319 O.co2   1  UNL1       -0.6615
      5 P          -2.8906   11.2064   -4.4248 P.3     1  UNL1        0.2491
      6 O          -2.3581   12.3087   -5.2796 O.co2   1  UNL1       -0.6337
      7 O          -2.1299   10.8247   -3.2041 O.co2   1  UNL1       -0.6337
      8 O          -2.4405   10.0017   -3.2834 O.3     1  UNL1       -0.0930
      9 O          -4.4304   11.5736   -4.0444 O.3     1  UNL1       -0.2057
     10 C          -4.7610   12.8320   -3.4908 C.3     1  UNL1        0.1232
     11 C          -6.1279   12.6646   -2.8948 C.3     1  UNL1        0.1214
     12 O          -5.9241   12.5418   -1.4833 O.3     1  UNL1       -0.3453
     13 C          -7.0433   13.9011   -3.1078 C.3     1  UNL1        0.1593
     14 O          -8.4260   13.4620   -3.2388 O.3     1  UNL1       -0.2421
     15 P          -8.9060   12.4603   -4.5361 P.3     1  UNL1       -0.0004
     16 O         -10.1178   13.1782   -5.0035 O.co2   1  UNL1       -0.6646
     17 O          -7.7372   12.5328   -5.4497 O.co2   1  UNL1       -0.6646
     18 O          -9.1082   11.0967   -3.9587 O.co2   1  UNL1       -0.6646
     19 C          -6.8220   14.6547   -1.8019 C.3     1  UNL1        0.1329
     20 O          -7.9063   15.5750   -1.5470 O.3     1  UNL1       -0.3845
     21 C          -6.8648   13.4184   -0.8823 C.3     1  UNL1        0.1668
     22 N          -6.3662   13.5978    0.4999 N.ar    1  UNL1       -0.2855
     23 C          -7.1747   13.4686    1.6015 C.ar    1  UNL1        0.1004
     24 N          -6.5672   13.6714    2.7329 N.ar    1  UNL1       -0.2306
     25 C          -5.2133   13.9678    2.3745 C.ar    1  UNL1        0.1473
     26 C          -4.0310   14.2702    3.1760 C.ar    1  UNL1        0.1472
     27 N          -4.0823   14.4188    4.5141 N.pl3   1  UNL1       -0.3413
     28 N          -2.8636   14.4744    2.5106 N.ar    1  UNL1       -0.2188
     29 C          -2.8840   14.4058    1.1714 C.ar    1  UNL1        0.1205
     30 N          -3.8966   14.1487    0.3083 N.ar    1  UNL1       -0.2159
     31 C          -5.0746   13.9249    0.9915 C.ar    1  UNL1        0.1674
     32 H          -4.0416   13.1092   -2.7202 H       1  UNL1        0.0631
     33 H          -4.7835   13.5909   -4.2728 H       1  UNL1        0.0631
     34 H          -6.6057   11.7673   -3.2882 H       1  UNL1        0.0650
     35 H          -6.7269   14.4902   -3.9686 H       1  UNL1        0.0694
     36 H          -5.8514   15.1498   -1.7757 H       1  UNL1        0.0667
     37 H          -7.8600   12.9737   -0.8792 H       1  UNL1        0.0866
     38 H          -8.2236   13.2202    1.5342 H       1  UNL1        0.1030
     39 H          -1.9294   14.5866    0.6999 H       1  UNL1        0.1048
     40 H          -4.1887   13.6092    5.1085 H       1  UNL1        0.1438
     41 H          -4.0145   15.3399    4.9228 H       1  UNL1        0.1438
     42 H          -8.0144   15.6883   -0.5998 H       1  UNL1        0.2101
@<TRIPOS>BOND
     1     1     2    1
     2     1     3    1
     3     1     4    1
     4     1     8    1
     5     5     6    1
     6     5     7    1
     7     5     8    1
     8     5     9    1
     9     9    10    1
    10    10    11    1
    11    11    12    1
    12    11    13    1
    13    12    21    1
    14    13    14    1
    15    13    19    1
    16    14    15    1
    17    15    16    1
    18    15    17    1
    19    15    18    1
    20    19    20    1
    21    19    21    1
    22    21    22    1
    23    22    23   ar
    24    22    31   ar
    25    23    24   ar
    26    24    25   ar
    27    25    26   ar
    28    25    31   ar
    29    26    27    1
    30    26    28   ar
    31    28    29   ar
    32    29    30   ar
    33    30    31   ar
    34    32    10    1
    35    33    10    1
    36    11    34    1
    37    13    35    1
    38    19    36    1
    39    21    37    1
    40    38    23    1
    41    39    29    1
    42    40    27    1
    43    41    27    1
    44    42    20    1
@<TRIPOS>SUBSTRUCTURE
     1 UNL1        1 TEMP              0 ****  ****    0 ROOT

########## Name:	6	-384.759  0.97242
@<TRIPOS>MOLECULE
af2_protein.mol26	
 42 44 1 0 0
SMALL
GASTEIGER


@<TRIPOS>ATOM
      1 P          -0.4591    8.6937   -2.8008 P.3     1  UNL1        0.0544
      2 O          -0.4711    8.3299   -1.3695 O.co2   1  UNL1       -0.6615
      3 O          -0.7926    7.5672   -3.7370 O.co2   1  UNL1       -0.6615
      4 O           0.7383    9.4633   -3.2115 O.co2   1  UNL1       -0.6615
      5 P          -2.6875   10.3394   -4.2790 P.3     1  UNL1        0.2491
      6 O          -2.4435   11.3277   -5.3711 O.co2   1  UNL1       -0.6337
      7 O          -1.6490   10.1750   -3.2260 O.co2   1  UNL1       -0.6337
      8 O          -1.7194    9.7353   -2.9926 O.3     1  UNL1       -0.0930
      9 O          -4.0933   10.7551   -3.5709 O.3     1  UNL1       -0.2057
     10 C          -4.3290   12.0844   -3.1504 C.3     1  UNL1        0.1232
     11 C          -5.7796   12.1365   -2.7701 C.3     1  UNL1        0.1214
     12 O          -5.8078   12.0999   -1.3393 O.3     1  UNL1       -0.3453
     13 C          -6.4763   13.4575   -3.1966 C.3     1  UNL1        0.1593
     14 O          -7.8706   13.1861   -3.5196 O.3     1  UNL1       -0.2421
     15 P          -8.2824   12.1254   -4.7932 P.3     1  UNL1       -0.0004
     16 O          -9.2650   12.9548   -5.5342 O.co2   1  UNL1       -0.6646
     17 O          -6.9808   11.9241   -5.4796 O.co2   1  UNL1       -0.6646
     18 O          -8.7982   10.8793   -4.1492 O.co2   1  UNL1       -0.6646
     19 C          -6.3526   14.2772   -1.9179 C.3     1  UNL1        0.1329
     20 O          -7.3277   15.3431   -1.8918 O.3     1  UNL1       -0.3845
     21 C          -6.7000   13.1316   -0.9468 C.3     1  UNL1        0.1668
     22 N          -6.3941   13.3547    0.4842 N.ar    1  UNL1       -0.2855
     23 C          -7.3107   13.1314    1.4811 C.ar    1  UNL1        0.1004
     24 N          -6.8697   13.3911    2.6762 N.ar    1  UNL1       -0.2306
     25 C          -5.5225   13.8346    2.4818 C.ar    1  UNL1        0.1473
     26 C          -4.4852   14.2578    3.4181 C.ar    1  UNL1        0.1472
     27 N          -4.7132   14.3909    4.7392 N.pl3   1  UNL1       -0.3413
     28 N          -3.2751   14.5915    2.8971 N.ar    1  UNL1       -0.2188
     29 C          -3.1263   14.5301    1.5656 C.ar    1  UNL1        0.1205
     30 N          -3.9936   14.1708    0.5884 N.ar    1  UNL1       -0.2159
     31 C          -5.2142   13.8163    1.1259 C.ar    1  UNL1        0.1674
     32 H          -3.7020   12.3287   -2.2928 H       1  UNL1        0.0631
     33 H          -4.1310   12.7767   -3.9686 H       1  UNL1        0.0631
     34 H          -6.3106   11.2781   -3.1817 H       1  UNL1        0.0650
     35 H          -5.9511   13.9101   -4.0377 H       1  UNL1        0.0694
     36 H          -5.3386   14.6474   -1.7668 H       1  UNL1        0.0667
     37 H          -7.6343   12.5819   -1.0609 H       1  UNL1        0.0866
     38 H          -8.3108   12.7714    1.2894 H       1  UNL1        0.1030
     39 H          -2.1470   14.8163    1.2115 H       1  UNL1        0.1048
     40 H          -4.8023   13.5706    5.3216 H       1  UNL1        0.1438
     41 H          -4.7953   15.3112    5.1472 H       1  UNL1        0.1438
     42 H          -7.5598   15.5427   -0.9819 H       1  UNL1        0.2101
@<TRIPOS>BOND
     1     1     2    1
     2     1     3    1
     3     1     4    1
     4     1     8    1
     5     5     6    1
     6     5     7    1
     7     5     8    1
     8     5     9    1
     9     9    10    1
    10    10    11    1
    11    11    12    1
    12    11    13    1
    13    12    21    1
    14    13    14    1
    15    13    19    1
    16    14    15    1
    17    15    16    1
    18    15    17    1
    19    15    18    1
    20    19    20    1
    21    19    21    1
    22    21    22    1
    23    22    23   ar
    24    22    31   ar
    25    23    24   ar
    26    24    25   ar
    27    25    26   ar
    28    25    31   ar
    29    26    27    1
    30    26    28   ar
    31    28    29   ar
    32    29    30   ar
    33    30    31   ar
    34    32    10    1
    35    33    10    1
    36    11    34    1
    37    13    35    1
    38    19    36    1
    39    21    37    1
    40    38    23    1
    41    39    29    1
    42    40    27    1
    43    41    27    1
    44    42    20    1
@<TRIPOS>SUBSTRUCTURE
     1 UNL1        1 TEMP              0 ****  ****    0 ROOT

########## Name:	7	-381.167  0.965052
@<TRIPOS>MOLECULE
af2_protein.mol27	
 42 44 1 0 0
SMALL
GASTEIGER


@<TRIPOS>ATOM
      1 P          -1.6302    8.7861   -3.9477 P.3     1  UNL1        0.0544
      2 O          -2.3501    7.6528   -3.3325 O.co2   1  UNL1       -0.6615
      3 O          -1.5007    8.7096   -5.4425 O.co2   1  UNL1       -0.6615
      4 O          -0.3605    9.1283   -3.2653 O.co2   1  UNL1       -0.6615
      5 P          -2.8403   11.6450   -4.4180 P.3     1  UNL1        0.2491
      6 O          -2.2626   12.8245   -5.1280 O.co2   1  UNL1       -0.6337
      7 O          -2.1725   11.1670   -3.1770 O.co2   1  UNL1       -0.6337
      8 O          -2.6029   10.0936   -3.7153 O.3     1  UNL1       -0.0930
      9 O          -4.3866   12.0175   -4.0711 O.3     1  UNL1       -0.2057
     10 C          -4.7148   13.2391   -3.4392 C.3     1  UNL1        0.1232
     11 C          -6.1299   13.0815   -2.9656 C.3     1  UNL1        0.1214
     12 O          -6.0435   12.8348   -1.5582 O.3     1  UNL1       -0.3453
     13 C          -6.9804   14.3691   -3.1417 C.3     1  UNL1        0.1593
     14 O          -8.3633   14.0013   -3.4147 O.3     1  UNL1       -0.2421
     15 P          -8.7742   13.1307   -4.8253 P.3     1  UNL1       -0.0004
     16 O          -9.9185   13.9353   -5.3208 O.co2   1  UNL1       -0.6646
     17 O          -7.5347   13.2282   -5.6376 O.co2   1  UNL1       -0.6646
     18 O          -9.0705   11.7341   -4.3831 O.co2   1  UNL1       -0.6646
     19 C          -6.8368   15.0029   -1.7634 C.3     1  UNL1        0.1329
     20 O          -7.9042   15.9444   -1.5144 O.3     1  UNL1       -0.3845
     21 C          -6.9969   13.6982   -0.9582 C.3     1  UNL1        0.1668
     22 N          -6.6036   13.7423    0.4681 N.ar    1  UNL1       -0.2855
     23 C          -7.5012   13.5576    1.4899 C.ar    1  UNL1        0.1004
     24 N          -6.9788   13.6409    2.6775 N.ar    1  UNL1       -0.2306
     25 C          -5.5909   13.9080    2.4499 C.ar    1  UNL1        0.1473
     26 C          -4.4659   14.0932    3.3619 C.ar    1  UNL1        0.1472
     27 N          -4.6181   14.1334    4.7000 N.pl3   1  UNL1       -0.3413
     28 N          -3.2428   14.3014    2.8073 N.ar    1  UNL1       -0.2188
     29 C          -3.1591   14.3439    1.4694 C.ar    1  UNL1        0.1205
     30 N          -4.1084   14.2018    0.5129 N.ar    1  UNL1       -0.2159
     31 C          -5.3443   13.9729    1.0828 C.ar    1  UNL1        0.1674
     32 H          -4.0494   13.4213   -2.5953 H       1  UNL1        0.0631
     33 H          -4.6478   14.0599   -4.1533 H       1  UNL1        0.0631
     34 H          -6.6068   12.2406   -3.4692 H       1  UNL1        0.0650
     35 H          -6.5757   15.0128   -3.9226 H       1  UNL1        0.0694
     36 H          -5.8541   15.4526   -1.6212 H       1  UNL1        0.0667
     37 H          -8.0045   13.2974   -1.0688 H       1  UNL1        0.0866
     38 H          -8.5498   13.3603    1.3220 H       1  UNL1        0.1030
     39 H          -2.1641   14.5222    1.0891 H       1  UNL1        0.1048
     40 H          -4.8004   13.2831    5.2135 H       1  UNL1        0.1438
     41 H          -4.5500   15.0142    5.1896 H       1  UNL1        0.1438
     42 H          -8.0830   15.9840   -0.5720 H       1  UNL1        0.2101
@<TRIPOS>BOND
     1     1     2    1
     2     1     3    1
     3     1     4    1
     4     1     8    1
     5     5     6    1
     6     5     7    1
     7     5     8    1
     8     5     9    1
     9     9    10    1
    10    10    11    1
    11    11    12    1
    12    11    13    1
    13    12    21    1
    14    13    14    1
    15    13    19    1
    16    14    15    1
    17    15    16    1
    18    15    17    1
    19    15    18    1
    20    19    20    1
    21    19    21    1
    22    21    22    1
    23    22    23   ar
    24    22    31   ar
    25    23    24   ar
    26    24    25   ar
    27    25    26   ar
    28    25    31   ar
    29    26    27    1
    30    26    28   ar
    31    28    29   ar
    32    29    30   ar
    33    30    31   ar
    34    32    10    1
    35    33    10    1
    36    11    34    1
    37    13    35    1
    38    19    36    1
    39    21    37    1
    40    38    23    1
    41    39    29    1
    42    40    27    1
    43    41    27    1
    44    42    20    1
@<TRIPOS>SUBSTRUCTURE
     1 UNL1        1 TEMP              0 ****  ****    0 ROOT

########## Name:	8	-350.905  0.972121
@<TRIPOS>MOLECULE
af2_protein.mol28	
 42 44 1 0 0
SMALL
GASTEIGER


@<TRIPOS>ATOM
      1 P          -1.7942    8.8010   -3.8721 P.3     1  UNL1        0.0544
      2 O          -0.4360    9.1233   -4.3543 O.co2   1  UNL1       -0.6615
      3 O          -1.9669    8.8845   -2.3821 O.co2   1  UNL1       -0.6615
      4 O          -2.3589    7.5640   -4.4601 O.co2   1  UNL1       -0.6615
      5 P          -4.2959   10.6866   -4.0843 P.3     1  UNL1        0.2491
      6 O          -3.8108   10.6837   -2.6723 O.co2   1  UNL1       -0.6337
      7 O          -5.6617   10.1676   -4.3663 O.co2   1  UNL1       -0.6337
      8 O          -2.7525   10.0150   -4.4360 O.3     1  UNL1       -0.0930
      9 O          -4.2179   12.2090   -4.6559 O.3     1  UNL1       -0.2057
     10 C          -4.7616   13.2886   -3.9222 C.3     1  UNL1        0.1232
     11 C          -6.0680   12.7898   -3.3779 C.3     1  UNL1        0.1214
     12 O          -5.8263   12.4925   -1.9987 O.3     1  UNL1       -0.3453
     13 C          -7.1933   13.8597   -3.4134 C.3     1  UNL1        0.1593
     14 O          -8.4764   13.2046   -3.6291 O.3     1  UNL1       -0.2421
     15 P          -8.7546   12.2665   -5.0288 P.3     1  UNL1       -0.0004
     16 O          -9.9088   12.9891   -5.6187 O.co2   1  UNL1       -0.6646
     17 O          -7.4757   12.4064   -5.7709 O.co2   1  UNL1       -0.6646
     18 O          -9.0012   10.8708   -4.5544 O.co2   1  UNL1       -0.6646
     19 C          -7.0932   14.4333   -2.0051 C.3     1  UNL1        0.1329
     20 O          -8.3216   15.0944   -1.6286 O.3     1  UNL1       -0.3845
     21 C          -6.9009   13.0842   -1.2848 C.3     1  UNL1        0.1668
     22 N          -6.4239   13.1379    0.1155 N.ar    1  UNL1       -0.2855
     23 C          -7.1540   12.6413    1.1662 C.ar    1  UNL1        0.1004
     24 N          -6.5826   12.7849    2.3251 N.ar    1  UNL1       -0.2306
     25 C          -5.3425   13.4423    2.0437 C.ar    1  UNL1        0.1473
     26 C          -4.2427   13.8701    2.9036 C.ar    1  UNL1        0.1472
     27 N          -4.2946   13.7745    4.2464 N.pl3   1  UNL1       -0.3413
     28 N          -3.1702   14.4478    2.3011 N.ar    1  UNL1       -0.2188
     29 C          -3.2065   14.6036    0.9695 C.ar    1  UNL1        0.1205
     30 N          -4.1531   14.2690    0.0594 N.ar    1  UNL1       -0.2159
     31 C          -5.2310   13.6669    0.6759 C.ar    1  UNL1        0.1674
     32 H          -4.0932   13.5699   -3.1083 H       1  UNL1        0.0631
     33 H          -4.9306   14.1410   -4.5800 H       1  UNL1        0.0631
     34 H          -6.3822   11.8917   -3.9098 H       1  UNL1        0.0650
     35 H          -6.9709   14.5753   -4.2049 H       1  UNL1        0.0694
     36 H          -6.2455   15.1184   -2.0096 H       1  UNL1        0.0667
     37 H          -7.7664   12.4276   -1.3730 H       1  UNL1        0.0866
     38 H          -8.1188   12.1721    1.0411 H       1  UNL1        0.1030
     39 H          -2.3309   15.0772    0.5507 H       1  UNL1        0.1048
     40 H          -4.1972   12.8739    4.6929 H       1  UNL1        0.1438
     41 H          -4.4311   14.6037    4.8067 H       1  UNL1        0.1438
     42 H          -8.3810   15.1392   -0.6715 H       1  UNL1        0.2101
@<TRIPOS>BOND
     1     1     2    1
     2     1     3    1
     3     1     4    1
     4     1     8    1
     5     5     6    1
     6     5     7    1
     7     5     8    1
     8     5     9    1
     9     9    10    1
    10    10    11    1
    11    11    12    1
    12    11    13    1
    13    12    21    1
    14    13    14    1
    15    13    19    1
    16    14    15    1
    17    15    16    1
    18    15    17    1
    19    15    18    1
    20    19    20    1
    21    19    21    1
    22    21    22    1
    23    22    23   ar
    24    22    31   ar
    25    23    24   ar
    26    24    25   ar
    27    25    26   ar
    28    25    31   ar
    29    26    27    1
    30    26    28   ar
    31    28    29   ar
    32    29    30   ar
    33    30    31   ar
    34    32    10    1
    35    33    10    1
    36    11    34    1
    37    13    35    1
    38    19    36    1
    39    21    37    1
    40    38    23    1
    41    39    29    1
    42    40    27    1
    43    41    27    1
    44    42    20    1
@<TRIPOS>SUBSTRUCTURE
     1 UNL1        1 TEMP              0 ****  ****    0 ROOT

########## Name:	9	-393.083  0.963969
@<TRIPOS>MOLECULE
af2_protein.mol29	
 42 44 1 0 0
SMALL
GASTEIGER


@<TRIPOS>ATOM
      1 P          -2.8890    8.3943   -3.2475 P.3     1  UNL1        0.0544
      2 O          -4.0080    7.4673   -3.5113 O.co2   1  UNL1       -0.6615
      3 O          -1.8091    8.3871   -4.2919 O.co2   1  UNL1       -0.6615
      4 O          -2.3670    8.3217   -1.8629 O.co2   1  UNL1       -0.6615
      5 P          -2.9824   11.5062   -3.6548 P.3     1  UNL1        0.2491
      6 O          -1.8517   12.3559   -3.1765 O.co2   1  UNL1       -0.6337
      7 O          -3.5453   10.4873   -2.7278 O.co2   1  UNL1       -0.6337
      8 O          -3.5366    9.9021   -3.3785 O.3     1  UNL1       -0.0930
      9 O          -4.3197   12.3324   -4.0782 O.3     1  UNL1       -0.2057
     10 C          -4.8373   13.3516   -3.2458 C.3     1  UNL1        0.1232
     11 C          -6.0673   12.7702   -2.6128 C.3     1  UNL1        0.1214
     12 O          -5.7637   12.6415   -1.2198 O.3     1  UNL1       -0.3453
     13 C          -7.3061   13.7014   -2.7155 C.3     1  UNL1        0.1593
     14 O          -8.5120   12.8915   -2.8239 O.3     1  UNL1       -0.2421
     15 P          -8.9362   12.1485   -4.3020 P.3     1  UNL1       -0.0004
     16 O         -10.3655   12.5348   -4.4031 O.co2   1  UNL1       -0.6646
     17 O          -8.0310   12.8173   -5.2711 O.co2   1  UNL1       -0.6646
     18 O          -8.6388   10.6930   -4.1387 O.co2   1  UNL1       -0.6646
     19 C          -7.2402   14.4215   -1.3741 C.3     1  UNL1        0.1329
     20 O          -8.5265   14.9786   -1.0237 O.3     1  UNL1       -0.3845
     21 C          -6.8820   13.1810   -0.5321 C.3     1  UNL1        0.1668
     22 N          -6.3836   13.4274    0.8398 N.ar    1  UNL1       -0.2855
     23 C          -7.1890   13.3385    1.9475 C.ar    1  UNL1        0.1004
     24 N          -6.5823   13.5982    3.0676 N.ar    1  UNL1       -0.2306
     25 C          -5.2323   13.8933    2.6939 C.ar    1  UNL1        0.1473
     26 C          -4.0523   14.2443    3.4789 C.ar    1  UNL1        0.1472
     27 N          -4.1035   14.4518    4.8091 N.pl3   1  UNL1       -0.3413
     28 N          -2.8882   14.4315    2.8029 N.ar    1  UNL1       -0.2188
     29 C          -2.9097   14.3031    1.4681 C.ar    1  UNL1        0.1205
     30 N          -3.9205   13.9966    0.6192 N.ar    1  UNL1       -0.2159
     31 C          -5.0950   13.7904    1.3139 C.ar    1  UNL1        0.1674
     32 H          -4.1871   13.7849   -2.4858 H       1  UNL1        0.0631
     33 H          -5.1153   14.1098   -3.9778 H       1  UNL1        0.0631
     34 H          -6.2903   11.7941   -3.0438 H       1  UNL1        0.0650
     35 H          -7.3362   14.5568   -3.3903 H       1  UNL1        0.0694
     36 H          -6.5058   15.1962   -1.5941 H       1  UNL1        0.0667
     37 H          -7.8722   12.7258   -0.5073 H       1  UNL1        0.0866
     38 H          -8.2352   13.0756    1.8933 H       1  UNL1        0.1030
     39 H          -1.9578   14.4733    0.9872 H       1  UNL1        0.1048
     40 H          -4.2000   13.6684    5.4392 H       1  UNL1        0.1438
     41 H          -4.0454   15.3909    5.1762 H       1  UNL1        0.1438
     42 H          -8.5303   15.2156   -0.0934 H       1  UNL1        0.2101
@<TRIPOS>BOND
     1     1     2    1
     2     1     3    1
     3     1     4    1
     4     1     8    1
     5     5     6    1
     6     5     7    1
     7     5     8    1
     8     5     9    1
     9     9    10    1
    10    10    11    1
    11    11    12    1
    12    11    13    1
    13    12    21    1
    14    13    14    1
    15    13    19    1
    16    14    15    1
    17    15    16    1
    18    15    17    1
    19    15    18    1
    20    19    20    1
    21    19    21    1
    22    21    22    1
    23    22    23   ar
    24    22    31   ar
    25    23    24   ar
    26    24    25   ar
    27    25    26   ar
    28    25    31   ar
    29    26    27    1
    30    26    28   ar
    31    28    29   ar
    32    29    30   ar
    33    30    31   ar
    34    32    10    1
    35    33    10    1
    36    11    34    1
    37    13    35    1
    38    19    36    1
    39    21    37    1
    40    38    23    1
    41    39    29    1
    42    40    27    1
    43    41    27    1
    44    42    20    1
@<TRIPOS>SUBSTRUCTURE
     1 UNL1        1 TEMP              0 ****  ****    0 ROOT

########## Name:	10	-395.265  0.966897
@<TRIPOS>MOLECULE
af2_protein.mol210	
 42 44 1 0 0
SMALL
GASTEIGER


@<TRIPOS>ATOM
      1 P          -1.7394    8.8565   -3.5817 P.3     1  UNL1        0.0544
      2 O          -2.0393    7.6949   -4.4430 O.co2   1  UNL1       -0.6615
      3 O          -0.4200    9.5191   -3.8594 O.co2   1  UNL1       -0.6615
      4 O          -1.9805    8.6098   -2.1409 O.co2   1  UNL1       -0.6615
      5 P          -2.9881   11.7163   -3.9297 P.3     1  UNL1        0.2491
      6 O          -1.9069   12.6865   -3.5850 O.co2   1  UNL1       -0.6337
      7 O          -3.7274   11.0545   -2.8206 O.co2   1  UNL1       -0.6337
      8 O          -2.8400   10.0048   -4.0058 O.3     1  UNL1       -0.0930
      9 O          -4.4051   12.0361   -4.6645 O.3     1  UNL1       -0.2057
     10 C          -5.1416   13.2002   -4.3458 C.3     1  UNL1        0.1232
     11 C          -6.3568   12.7201   -3.6080 C.3     1  UNL1        0.1214
     12 O          -5.9478   12.5649   -2.2450 O.3     1  UNL1       -0.3453
     13 C          -7.5199   13.7493   -3.6106 C.3     1  UNL1        0.1593
     14 O          -8.7926   13.0405   -3.6124 O.3     1  UNL1       -0.2421
     15 P          -9.1170   11.8292   -4.7718 P.3     1  UNL1       -0.0004
     16 O         -10.5294   12.1397   -5.1053 O.co2   1  UNL1       -0.6646
     17 O          -8.1335   12.1347   -5.8419 O.co2   1  UNL1       -0.6646
     18 O          -8.8531   10.5224   -4.0961 O.co2   1  UNL1       -0.6646
     19 C          -7.2824   14.4595   -2.2834 C.3     1  UNL1        0.1329
     20 O          -8.4848   15.1191   -1.8286 O.3     1  UNL1       -0.3845
     21 C          -6.9563   13.1926   -1.4681 C.3     1  UNL1        0.1668
     22 N          -6.3251   13.3954   -0.1446 N.ar    1  UNL1       -0.2855
     23 C          -7.0083   13.2319    1.0345 C.ar    1  UNL1        0.1004
     24 N          -6.2960   13.4626    2.0974 N.ar    1  UNL1       -0.2306
     25 C          -5.0011   13.8180    1.6014 C.ar    1  UNL1        0.1473
     26 C          -3.7563   14.1732    2.2767 C.ar    1  UNL1        0.1472
     27 N          -3.6747   14.3208    3.6134 N.pl3   1  UNL1       -0.3413
     28 N          -2.6745   14.4279    1.4944 N.ar    1  UNL1       -0.2188
     29 C          -2.8310   14.3569    0.1643 C.ar    1  UNL1        0.1205
     30 N          -3.9155   14.0545   -0.5898 N.ar    1  UNL1       -0.2159
     31 C          -5.0051   13.7797    0.2113 C.ar    1  UNL1        0.1674
     32 H          -4.3963   13.5780   -3.6458 H       1  UNL1        0.0631
     33 H          -5.4179   13.9797   -5.0557 H       1  UNL1        0.0631
     34 H          -6.6942   11.7661   -4.0133 H       1  UNL1        0.0650
     35 H          -7.3617   14.2904   -4.5435 H       1  UNL1        0.0694
     36 H          -6.4637   15.1626   -2.4362 H       1  UNL1        0.0667
     37 H          -7.9253   12.7045   -1.3632 H       1  UNL1        0.0866
     38 H          -8.0466   12.9374    1.0757 H       1  UNL1        0.1030
     39 H          -1.9394   14.5792   -0.4032 H       1  UNL1        0.1048
     40 H          -3.6830   13.5080    4.2128 H       1  UNL1        0.1438
     41 H          -3.6054   15.2445    4.0161 H       1  UNL1        0.1438
     42 H          -8.4424   15.2423   -0.8774 H       1  UNL1        0.2101
@<TRIPOS>BOND
     1     1     2    1
     2     1     3    1
     3     1     4    1
     4     1     8    1
     5     5     6    1
     6     5     7    1
     7     5     8    1
     8     5     9    1
     9     9    10    1
    10    10    11    1
    11    11    12    1
    12    11    13    1
    13    12    21    1
    14    13    14    1
    15    13    19    1
    16    14    15    1
    17    15    16    1
    18    15    17    1
    19    15    18    1
    20    19    20    1
    21    19    21    1
    22    21    22    1
    23    22    23   ar
    24    22    31   ar
    25    23    24   ar
    26    24    25   ar
    27    25    26   ar
    28    25    31   ar
    29    26    27    1
    30    26    28   ar
    31    28    29   ar
    32    29    30   ar
    33    30    31   ar
    34    32    10    1
    35    33    10    1
    36    11    34    1
    37    13    35    1
    38    19    36    1
    39    21    37    1
    40    38    23    1
    41    39    29    1
    42    40    27    1
    43    41    27    1
    44    42    20    1
@<TRIPOS>SUBSTRUCTURE
     1 UNL1        1 TEMP              0 ****  ****    0 ROOT

########## Name:	11	-370.426  0.965954
@<TRIPOS>MOLECULE
af2_protein.mol211	
 42 44 1 0 0
SMALL
GASTEIGER


@<TRIPOS>ATOM
      1 P          -1.2232    9.5540   -4.5205 P.3     1  UNL1        0.0544
      2 O          -0.5627    9.7802   -5.8219 O.co2   1  UNL1       -0.6615
      3 O          -0.6290   10.3214   -3.3739 O.co2   1  UNL1       -0.6615
      4 O          -1.4588    8.1245   -4.2107 O.co2   1  UNL1       -0.6615
      5 P          -3.9912   10.7546   -3.6515 P.3     1  UNL1        0.2491
      6 O          -2.7852   11.4503   -3.1123 O.co2   1  UNL1       -0.6337
      7 O          -4.9377   10.1275   -2.6895 O.co2   1  UNL1       -0.6337
      8 O          -2.7259   10.2072   -4.6791 O.3     1  UNL1       -0.0930
      9 O          -4.8009   11.8463   -4.5476 O.3     1  UNL1       -0.2057
     10 C          -5.1049   13.1271   -4.0314 C.3     1  UNL1        0.1232
     11 C          -6.4437   12.9879   -3.3681 C.3     1  UNL1        0.1214
     12 O          -6.1702   12.8059   -1.9749 O.3     1  UNL1       -0.3453
     13 C          -7.3208   14.2641   -3.4879 C.3     1  UNL1        0.1593
     14 O          -8.7244   13.8810   -3.5587 O.3     1  UNL1       -0.2421
     15 P          -9.3107   12.9459   -4.8620 P.3     1  UNL1       -0.0004
     16 O         -10.5171   13.7244   -5.2375 O.co2   1  UNL1       -0.6646
     17 O          -8.1902   13.0091   -5.8347 O.co2   1  UNL1       -0.6646
     18 O          -9.5344   11.5703   -4.3222 O.co2   1  UNL1       -0.6646
     19 C          -7.0017   14.9605   -2.1705 C.3     1  UNL1        0.1329
     20 O          -8.0348   15.9099   -1.8252 O.3     1  UNL1       -0.3845
     21 C          -7.0433   13.6936   -1.2935 C.3     1  UNL1        0.1668
     22 N          -6.4655   13.8037    0.0649 N.ar    1  UNL1       -0.2855
     23 C          -7.2174   13.6569    1.2037 C.ar    1  UNL1        0.1004
     24 N          -6.5438   13.7967    2.3068 N.ar    1  UNL1       -0.2306
     25 C          -5.2020   14.0648    1.8859 C.ar    1  UNL1        0.1473
     26 C          -3.9690   14.2991    2.6319 C.ar    1  UNL1        0.1472
     27 N          -3.9435   14.3971    3.9753 N.pl3   1  UNL1       -0.3413
     28 N          -2.8330   14.4927    1.9114 N.ar    1  UNL1       -0.2188
     29 C          -2.9275   14.4769    0.5737 C.ar    1  UNL1        0.1205
     30 N          -3.9929   14.2850   -0.2414 N.ar    1  UNL1       -0.2159
     31 C          -5.1393   14.0714    0.4967 C.ar    1  UNL1        0.1674
     32 H          -4.3355   13.3492   -3.2919 H       1  UNL1        0.0631
     33 H          -5.1396   13.9145   -4.7841 H       1  UNL1        0.0631
     34 H          -6.9759   12.1237   -3.7659 H       1  UNL1        0.0650
     35 H          -7.0281   14.8724   -4.3436 H       1  UNL1        0.0694
     36 H          -6.0470   15.4488   -2.3658 H       1  UNL1        0.0667
     37 H          -8.0509   13.2801   -1.2522 H       1  UNL1        0.0866
     38 H          -8.2761   13.4439    1.1850 H       1  UNL1        0.1030
     39 H          -1.9941   14.6463    0.0575 H       1  UNL1        0.1048
     40 H          -4.0444   13.5687    4.5442 H       1  UNL1        0.1438
     41 H          -3.8235   15.2991    4.4136 H       1  UNL1        0.1438
     42 H          -7.9765   16.1208   -0.8904 H       1  UNL1        0.2101
@<TRIPOS>BOND
     1     1     2    1
     2     1     3    1
     3     1     4    1
     4     1     8    1
     5     5     6    1
     6     5     7    1
     7     5     8    1
     8     5     9    1
     9     9    10    1
    10    10    11    1
    11    11    12    1
    12    11    13    1
    13    12    21    1
    14    13    14    1
    15    13    19    1
    16    14    15    1
    17    15    16    1
    18    15    17    1
    19    15    18    1
    20    19    20    1
    21    19    21    1
    22    21    22    1
    23    22    23   ar
    24    22    31   ar
    25    23    24   ar
    26    24    25   ar
    27    25    26   ar
    28    25    31   ar
    29    26    27    1
    30    26    28   ar
    31    28    29   ar
    32    29    30   ar
    33    30    31   ar
    34    32    10    1
    35    33    10    1
    36    11    34    1
    37    13    35    1
    38    19    36    1
    39    21    37    1
    40    38    23    1
    41    39    29    1
    42    40    27    1
    43    41    27    1
    44    42    20    1
@<TRIPOS>SUBSTRUCTURE
     1 UNL1        1 TEMP              0 ****  ****    0 ROOT

########## Name:	12	-387.479  0.964846
@<TRIPOS>MOLECULE
af2_protein.mol212	
 42 44 1 0 0
SMALL
GASTEIGER


@<TRIPOS>ATOM
      1 P          -1.0403    9.5522   -4.7934 P.3     1  UNL1        0.0544
      2 O          -0.9530    9.3890   -6.2586 O.co2   1  UNL1       -0.6615
      3 O          -0.0393   10.5074   -4.2081 O.co2   1  UNL1       -0.6615
      4 O          -1.1315    8.2716   -4.0541 O.co2   1  UNL1       -0.6615
      5 P          -3.2313   11.2133   -3.2771 P.3     1  UNL1        0.2491
      6 O          -2.3001   12.1632   -2.5992 O.co2   1  UNL1       -0.6337
      7 O          -3.9533   10.2126   -2.4455 O.co2   1  UNL1       -0.6337
      8 O          -2.4824   10.2999   -4.5269 O.3     1  UNL1       -0.0930
      9 O          -4.1647   12.2910   -4.0630 O.3     1  UNL1       -0.2057
     10 C          -4.7789   13.3602   -3.3710 C.3     1  UNL1        0.1232
     11 C          -6.0823   12.8170   -2.8632 C.3     1  UNL1        0.1214
     12 O          -5.8906   12.5932   -1.4624 O.3     1  UNL1       -0.3453
     13 C          -7.2578   13.8231   -2.9978 C.3     1  UNL1        0.1593
     14 O          -8.4943   13.0921   -3.2402 O.3     1  UNL1       -0.2421
     15 P          -8.6918   12.1525   -4.6526 P.3     1  UNL1       -0.0004
     16 O         -10.0399   12.5933   -5.0892 O.co2   1  UNL1       -0.6646
     17 O          -7.5686   12.6143   -5.5075 O.co2   1  UNL1       -0.6646
     18 O          -8.5508   10.7261   -4.2289 O.co2   1  UNL1       -0.6646
     19 C          -7.2533   14.4620   -1.6143 C.3     1  UNL1        0.1329
     20 O          -8.5301   15.0726   -1.3236 O.3     1  UNL1       -0.3845
     21 C          -7.0263   13.1576   -0.8249 C.3     1  UNL1        0.1668
     22 N          -6.6189   13.2974    0.5913 N.ar    1  UNL1       -0.2855
     23 C          -7.4953   13.1298    1.6341 C.ar    1  UNL1        0.1004
     24 N          -6.9634   13.3014    2.8079 N.ar    1  UNL1       -0.2306
     25 C          -5.5916   13.6165    2.5466 C.ar    1  UNL1        0.1473
     26 C          -4.4655   13.9012    3.4313 C.ar    1  UNL1        0.1472
     27 N          -4.6038   14.0083    4.7671 N.pl3   1  UNL1       -0.3413
     28 N          -3.2595   14.1324    2.8489 N.ar    1  UNL1       -0.2188
     29 C          -3.1934   14.1048    1.5097 C.ar    1  UNL1        0.1205
     30 N          -4.1464   13.8684    0.5758 N.ar    1  UNL1       -0.2159
     31 C          -5.3641   13.6169    1.1747 C.ar    1  UNL1        0.1674
     32 H          -4.1647   13.7118   -2.5420 H       1  UNL1        0.0631
     33 H          -4.9602   14.1731   -4.0741 H       1  UNL1        0.0631
     34 H          -6.3249   11.8812   -3.3667 H       1  UNL1        0.0650
     35 H          -7.0678   14.5588   -3.7792 H       1  UNL1        0.0694
     36 H          -6.4197   15.1109   -1.3462 H       1  UNL1        0.0667
     37 H          -8.0161   12.7072   -0.8994 H       1  UNL1        0.0866
     38 H          -8.5358   12.8775    1.4919 H       1  UNL1        0.1030
     39 H          -2.2119   14.3056    1.1063 H       1  UNL1        0.1048
     40 H          -4.7418   13.1803    5.3287 H       1  UNL1        0.1438
     41 H          -4.5696   14.9168    5.2070 H       1  UNL1        0.1438
     42 H          -8.7484   14.9342   -0.3991 H       1  UNL1        0.2101
@<TRIPOS>BOND
     1     1     2    1
     2     1     3    1
     3     1     4    1
     4     1     8    1
     5     5     6    1
     6     5     7    1
     7     5     8    1
     8     5     9    1
     9     9    10    1
    10    10    11    1
    11    11    12    1
    12    11    13    1
    13    12    21    1
    14    13    14    1
    15    13    19    1
    16    14    15    1
    17    15    16    1
    18    15    17    1
    19    15    18    1
    20    19    20    1
    21    19    21    1
    22    21    22    1
    23    22    23   ar
    24    22    31   ar
    25    23    24   ar
    26    24    25   ar
    27    25    26   ar
    28    25    31   ar
    29    26    27    1
    30    26    28   ar
    31    28    29   ar
    32    29    30   ar
    33    30    31   ar
    34    32    10    1
    35    33    10    1
    36    11    34    1
    37    13    35    1
    38    19    36    1
    39    21    37    1
    40    38    23    1
    41    39    29    1
    42    40    27    1
    43    41    27    1
    44    42    20    1
@<TRIPOS>SUBSTRUCTURE
     1 UNL1        1 TEMP              0 ****  ****    0 ROOT

########## Name:	13	-370.417  0.967242
@<TRIPOS>MOLECULE
af2_protein.mol213	
 42 44 1 0 0
SMALL
GASTEIGER


@<TRIPOS>ATOM
      1 P          -1.3730    8.5680   -4.3172 P.3     1  UNL1        0.0544
      2 O          -2.1289    7.3148   -4.1200 O.co2   1  UNL1       -0.6615
      3 O          -1.1324    8.9358   -5.7538 O.co2   1  UNL1       -0.6615
      4 O          -0.1598    8.6729   -3.4734 O.co2   1  UNL1       -0.6615
      5 P          -2.5627   11.4567   -4.0036 P.3     1  UNL1        0.2491
      6 O          -2.1701   12.4175   -5.0768 O.co2   1  UNL1       -0.6337
      7 O          -1.7987   11.4685   -2.7267 O.co2   1  UNL1       -0.6337
      8 O          -2.3691    9.7630   -3.7789 O.3     1  UNL1       -0.0930
      9 O          -4.1334   11.7344   -3.6773 O.3     1  UNL1       -0.2057
     10 C          -4.6016   13.0444   -3.4240 C.3     1  UNL1        0.1232
     11 C          -6.0327   12.8871   -3.0012 C.3     1  UNL1        0.1214
     12 O          -6.0010   12.7077   -1.5813 O.3     1  UNL1       -0.3453
     13 C          -6.8927   14.1517   -3.2723 C.3     1  UNL1        0.1593
     14 O          -8.2580   13.7501   -3.5833 O.3     1  UNL1       -0.2421
     15 P          -8.5986   12.8083   -4.9667 P.3     1  UNL1       -0.0004
     16 O          -9.7914   13.5165   -5.4940 O.co2   1  UNL1       -0.6646
     17 O          -7.3628   12.9639   -5.7756 O.co2   1  UNL1       -0.6646
     18 O          -8.8023   11.4098   -4.4805 O.co2   1  UNL1       -0.6646
     19 C          -6.8146   14.8513   -1.9207 C.3     1  UNL1        0.1329
     20 O          -7.9041   15.7867   -1.7600 O.3     1  UNL1       -0.3845
     21 C          -6.9900   13.5833   -1.0620 C.3     1  UNL1        0.1668
     22 N          -6.6565   13.7000    0.3755 N.ar    1  UNL1       -0.2855
     23 C          -7.6077   13.6444    1.3633 C.ar    1  UNL1        0.1004
     24 N          -7.1325   13.7754    2.5664 N.ar    1  UNL1       -0.2306
     25 C          -5.7212   13.9361    2.3879 C.ar    1  UNL1        0.1473
     26 C          -4.6266   14.1107    3.3383 C.ar    1  UNL1        0.1472
     27 N          -4.8332   14.2527    4.6620 N.pl3   1  UNL1       -0.3413
     28 N          -3.3694   14.2010    2.8299 N.ar    1  UNL1       -0.2188
     29 C          -3.2255   14.1457    1.4976 C.ar    1  UNL1        0.1205
     30 N          -4.1402   13.9996    0.5085 N.ar    1  UNL1       -0.2159
     31 C          -5.4121   13.8906    1.0328 C.ar    1  UNL1        0.1674
     32 H          -3.9741   13.2761   -2.5633 H       1  UNL1        0.0631
     33 H          -4.5164   13.8319   -4.1727 H       1  UNL1        0.0631
     34 H          -6.4770   12.0162   -3.4833 H       1  UNL1        0.0650
     35 H          -6.4649   14.7644   -4.0657 H       1  UNL1        0.0694
     36 H          -5.8448   15.3223   -1.7603 H       1  UNL1        0.0667
     37 H          -8.0167   13.2417   -1.1937 H       1  UNL1        0.0866
     38 H          -8.6589   13.5040    1.1592 H       1  UNL1        0.1030
     39 H          -2.2053   14.2328    1.1542 H       1  UNL1        0.1048
     40 H          -5.0945   13.4533    5.2212 H       1  UNL1        0.1438
     41 H          -4.7269   15.1588    5.0953 H       1  UNL1        0.1438
     42 H          -8.1221   15.8675   -0.8286 H       1  UNL1        0.2101
@<TRIPOS>BOND
     1     1     2    1
     2     1     3    1
     3     1     4    1
     4     1     8    1
     5     5     6    1
     6     5     7    1
     7     5     8    1
     8     5     9    1
     9     9    10    1
    10    10    11    1
    11    11    12    1
    12    11    13    1
    13    12    21    1
    14    13    14    1
    15    13    19    1
    16    14    15    1
    17    15    16    1
    18    15    17    1
    19    15    18    1
    20    19    20    1
    21    19    21    1
    22    21    22    1
    23    22    23   ar
    24    22    31   ar
    25    23    24   ar
    26    24    25   ar
    27    25    26   ar
    28    25    31   ar
    29    26    27    1
    30    26    28   ar
    31    28    29   ar
    32    29    30   ar
    33    30    31   ar
    34    32    10    1
    35    33    10    1
    36    11    34    1
    37    13    35    1
    38    19    36    1
    39    21    37    1
    40    38    23    1
    41    39    29    1
    42    40    27    1
    43    41    27    1
    44    42    20    1
@<TRIPOS>SUBSTRUCTURE
     1 UNL1        1 TEMP              0 ****  ****    0 ROOT

########## Name:	14	-362.772  0.96279
@<TRIPOS>MOLECULE
af2_protein.mol214	
 42 44 1 0 0
SMALL
GASTEIGER


@<TRIPOS>ATOM
      1 P          -2.3048    8.9165   -3.7393 P.3     1  UNL1        0.0544
      2 O          -3.2245    7.7617   -3.7006 O.co2   1  UNL1       -0.6615
      3 O          -1.5696    9.0895   -5.0379 O.co2   1  UNL1       -0.6615
      4 O          -1.4280    9.0220   -2.5498 O.co2   1  UNL1       -0.6615
      5 P          -3.1629   11.9234   -4.0242 P.3     1  UNL1        0.2491
      6 O          -2.2428   13.0987   -4.0607 O.co2   1  UNL1       -0.6337
      7 O          -3.1677   11.0638   -2.8095 O.co2   1  UNL1       -0.6337
      8 O          -3.2753   10.2444   -3.6704 O.3     1  UNL1       -0.0930
      9 O          -4.7062   12.4031   -4.2203 O.3     1  UNL1       -0.2057
     10 C          -5.2349   13.4749   -3.4645 C.3     1  UNL1        0.1232
     11 C          -6.4583   12.9281   -2.7893 C.3     1  UNL1        0.1214
     12 O          -6.0786   12.6914   -1.4295 O.3     1  UNL1       -0.3453
     13 C          -7.6392   13.9363   -2.7541 C.3     1  UNL1        0.1593
     14 O          -8.8986   13.2085   -2.8328 O.3     1  UNL1       -0.2421
     15 P          -9.2456   12.2038   -4.1695 P.3     1  UNL1       -0.0004
     16 O         -10.6169   12.6599   -4.5070 O.co2   1  UNL1       -0.6646
     17 O          -8.1938   12.5891   -5.1447 O.co2   1  UNL1       -0.6646
     18 O          -9.1007   10.7976   -3.6842 O.co2   1  UNL1       -0.6646
     19 C          -7.4455   14.5626   -1.3784 C.3     1  UNL1        0.1329
     20 O          -8.6698   15.1716   -0.9115 O.3     1  UNL1       -0.3845
     21 C          -7.1161   13.2509   -0.6388 C.3     1  UNL1        0.1668
     22 N          -6.5198   13.3775    0.7102 N.ar    1  UNL1       -0.2855
     23 C          -7.2100   13.0726    1.8566 C.ar    1  UNL1        0.1004
     24 N          -6.5305   13.2542    2.9500 N.ar    1  UNL1       -0.2306
     25 C          -5.2524   13.7286    2.5131 C.ar    1  UNL1        0.1473
     26 C          -4.0430   14.0995    3.2422 C.ar    1  UNL1        0.1472
     27 N          -3.9920   14.1368    4.5879 N.pl3   1  UNL1       -0.3413
     28 N          -2.9669   14.4853    2.5072 N.ar    1  UNL1       -0.2188
     29 C          -3.0975   14.5192    1.1728 C.ar    1  UNL1        0.1205
     30 N          -4.1490   14.2172    0.3731 N.ar    1  UNL1       -0.2159
     31 C          -5.2320   13.8093    1.1250 C.ar    1  UNL1        0.1674
     32 H          -4.5130   13.8184   -2.7235 H       1  UNL1        0.0631
     33 H          -5.5083   14.2942   -4.1293 H       1  UNL1        0.0631
     34 H          -6.7690   11.9971   -3.2635 H       1  UNL1        0.0650
     35 H          -7.5254   14.6311   -3.5862 H       1  UNL1        0.0694
     36 H          -6.6094   15.2617   -1.3620 H       1  UNL1        0.0667
     37 H          -8.0543   12.6977   -0.5959 H       1  UNL1        0.0866
     38 H          -8.2285   12.7132    1.8509 H       1  UNL1        0.1030
     39 H          -2.2126   14.8428    0.6450 H       1  UNL1        0.1048
     40 H          -3.9592   13.2767    5.1163 H       1  UNL1        0.1438
     41 H          -3.9866   15.0251    5.0686 H       1  UNL1        0.1438
     42 H          -8.6951   15.1453    0.0478 H       1  UNL1        0.2101
@<TRIPOS>BOND
     1     1     2    1
     2     1     3    1
     3     1     4    1
     4     1     8    1
     5     5     6    1
     6     5     7    1
     7     5     8    1
     8     5     9    1
     9     9    10    1
    10    10    11    1
    11    11    12    1
    12    11    13    1
    13    12    21    1
    14    13    14    1
    15    13    19    1
    16    14    15    1
    17    15    16    1
    18    15    17    1
    19    15    18    1
    20    19    20    1
    21    19    21    1
    22    21    22    1
    23    22    23   ar
    24    22    31   ar
    25    23    24   ar
    26    24    25   ar
    27    25    26   ar
    28    25    31   ar
    29    26    27    1
    30    26    28   ar
    31    28    29   ar
    32    29    30   ar
    33    30    31   ar
    34    32    10    1
    35    33    10    1
    36    11    34    1
    37    13    35    1
    38    19    36    1
    39    21    37    1
    40    38    23    1
    41    39    29    1
    42    40    27    1
    43    41    27    1
    44    42    20    1
@<TRIPOS>SUBSTRUCTURE
     1 UNL1        1 TEMP              0 ****  ****    0 ROOT

########## Name:	15	-372.862  0.970829
@<TRIPOS>MOLECULE
af2_protein.mol215	
 42 44 1 0 0
SMALL
GASTEIGER


@<TRIPOS>ATOM
      1 P          -1.3776    8.6433   -3.3060 P.3     1  UNL1        0.0544
      2 O          -1.8032    7.8587   -2.1295 O.co2   1  UNL1       -0.6615
      3 O          -1.5806    7.9549   -4.6257 O.co2   1  UNL1       -0.6615
      4 O          -0.0355    9.2542   -3.1629 O.co2   1  UNL1       -0.6615
      5 P          -2.9431   11.0702   -4.5383 P.3     1  UNL1        0.2491
      6 O          -2.4437   12.1671   -5.4195 O.co2   1  UNL1       -0.6337
      7 O          -2.1283   10.6851   -3.3541 O.co2   1  UNL1       -0.6337
      8 O          -2.4184    9.9168   -3.3758 O.3     1  UNL1       -0.0930
      9 O          -4.4259   11.5130   -4.0328 O.3     1  UNL1       -0.2057
     10 C          -4.6512   12.7936   -3.4774 C.3     1  UNL1        0.1232
     11 C          -6.0721   12.7806   -2.9953 C.3     1  UNL1        0.1214
     12 O          -5.9976   12.7032   -1.5679 O.3     1  UNL1       -0.3453
     13 C          -6.8437   14.0858   -3.3319 C.3     1  UNL1        0.1593
     14 O          -8.2469   13.7713   -3.5650 O.3     1  UNL1       -0.2421
     15 P          -8.7160   12.7918   -4.8830 P.3     1  UNL1       -0.0004
     16 O          -9.8174   13.6073   -5.4526 O.co2   1  UNL1       -0.6646
     17 O          -7.4790   12.7400   -5.7033 O.co2   1  UNL1       -0.6646
     18 O          -9.0863   11.4638   -4.3059 O.co2   1  UNL1       -0.6646
     19 C          -6.6590   14.8737   -2.0407 C.3     1  UNL1        0.1329
     20 O          -7.6670   15.9011   -1.9142 O.3     1  UNL1       -0.3845
     21 C          -6.8958   13.6893   -1.0829 C.3     1  UNL1        0.1668
     22 N          -6.4974   13.8838    0.3294 N.ar    1  UNL1       -0.2855
     23 C          -7.3932   13.8189    1.3672 C.ar    1  UNL1        0.1004
     24 N          -6.8660   14.0254    2.5376 N.ar    1  UNL1       -0.2306
     25 C          -5.4766   14.2536    2.2792 C.ar    1  UNL1        0.1473
     26 C          -4.3470   14.5261    3.1632 C.ar    1  UNL1        0.1472
     27 N          -4.4943   14.7122    4.4894 N.pl3   1  UNL1       -0.3413
     28 N          -3.1239   14.6620    2.5863 N.ar    1  UNL1       -0.2188
     29 C          -3.0444   14.5588    1.2516 C.ar    1  UNL1        0.1205
     30 N          -3.9981   14.3227    0.3183 N.ar    1  UNL1       -0.2159
     31 C          -5.2340   14.1680    0.9125 C.ar    1  UNL1        0.1674
     32 H          -3.9741   13.0373   -2.6586 H       1  UNL1        0.0631
     33 H          -4.5363   13.5153   -4.2860 H       1  UNL1        0.0631
     34 H          -6.6001   11.9146   -3.3948 H       1  UNL1        0.0650
     35 H          -6.4096   14.6267   -4.1727 H       1  UNL1        0.0694
     36 H          -5.6555   15.2626   -1.8681 H       1  UNL1        0.0667
     37 H          -7.9073   13.2882   -1.1471 H       1  UNL1        0.0866
     38 H          -8.4439   13.6142    1.2242 H       1  UNL1        0.1030
     39 H          -2.0492   14.6857    0.8518 H       1  UNL1        0.1048
     40 H          -4.6824   13.9241    5.0923 H       1  UNL1        0.1438
     41 H          -4.4168   15.6401    4.8807 H       1  UNL1        0.1438
     42 H          -7.8941   16.0148   -0.9884 H       1  UNL1        0.2101
@<TRIPOS>BOND
     1     1     2    1
     2     1     3    1
     3     1     4    1
     4     1     8    1
     5     5     6    1
     6     5     7    1
     7     5     8    1
     8     5     9    1
     9     9    10    1
    10    10    11    1
    11    11    12    1
    12    11    13    1
    13    12    21    1
    14    13    14    1
    15    13    19    1
    16    14    15    1
    17    15    16    1
    18    15    17    1
    19    15    18    1
    20    19    20    1
    21    19    21    1
    22    21    22    1
    23    22    23   ar
    24    22    31   ar
    25    23    24   ar
    26    24    25   ar
    27    25    26   ar
    28    25    31   ar
    29    26    27    1
    30    26    28   ar
    31    28    29   ar
    32    29    30   ar
    33    30    31   ar
    34    32    10    1
    35    33    10    1
    36    11    34    1
    37    13    35    1
    38    19    36    1
    39    21    37    1
    40    38    23    1
    41    39    29    1
    42    40    27    1
    43    41    27    1
    44    42    20    1
@<TRIPOS>SUBSTRUCTURE
     1 UNL1        1 TEMP              0 ****  ****    0 ROOT

########## Name:	16	-339.944  0.962757
@<TRIPOS>MOLECULE
af2_protein.mol216	
 42 44 1 0 0
SMALL
GASTEIGER


@<TRIPOS>ATOM
      1 P          -2.3472    8.7876   -3.7392 P.3     1  UNL1        0.0544
      2 O          -3.3080    7.6936   -3.9862 O.co2   1  UNL1       -0.6615
      3 O          -1.4882    9.1460   -4.9184 O.co2   1  UNL1       -0.6615
      4 O          -1.5819    8.6376   -2.4796 O.co2   1  UNL1       -0.6615
      5 P          -3.0682   11.8389   -3.5687 P.3     1  UNL1        0.2491
      6 O          -2.1494   13.0149   -3.5252 O.co2   1  UNL1       -0.6337
      7 O          -3.1557   10.9623   -2.3694 O.co2   1  UNL1       -0.6337
      8 O          -3.2709   10.1321   -3.5171 O.3     1  UNL1       -0.0930
      9 O          -4.5527   12.4158   -3.9059 O.3     1  UNL1       -0.2057
     10 C          -5.0958   13.4956   -3.1720 C.3     1  UNL1        0.1232
     11 C          -6.3847   12.9855   -2.5972 C.3     1  UNL1        0.1214
     12 O          -6.1318   12.7731   -1.2044 O.3     1  UNL1       -0.3453
     13 C          -7.5443   14.0147   -2.6885 C.3     1  UNL1        0.1593
     14 O          -8.8056   13.3073   -2.8639 O.3     1  UNL1       -0.2421
     15 P          -9.0985   12.3771   -4.2658 P.3     1  UNL1       -0.0004
     16 O         -10.4620   12.8415   -4.6234 O.co2   1  UNL1       -0.6646
     17 O          -8.0184   12.8243   -5.1818 O.co2   1  UNL1       -0.6646
     18 O          -8.9571   10.9469   -3.8556 O.co2   1  UNL1       -0.6646
     19 C          -7.4614   14.6684   -1.3144 C.3     1  UNL1        0.1329
     20 O          -8.7102   15.3090   -0.9715 O.3     1  UNL1       -0.3845
     21 C          -7.2243   13.3682   -0.5211 C.3     1  UNL1        0.1668
     22 N          -6.7477   13.5149    0.8726 N.ar    1  UNL1       -0.2855
     23 C          -7.5580   13.2983    1.9590 C.ar    1  UNL1        0.1004
     24 N          -6.9717   13.4844    3.1044 N.ar    1  UNL1       -0.2306
     25 C          -5.6319   13.8647    2.7734 C.ar    1  UNL1        0.1473
     26 C          -4.4739   14.1937    3.5995 C.ar    1  UNL1        0.1472
     27 N          -4.5444   14.2832    4.9419 N.pl3   1  UNL1       -0.3413
     28 N          -3.3129   14.4853    2.9559 N.ar    1  UNL1       -0.2188
     29 C          -3.3181   14.4720    1.6148 C.ar    1  UNL1        0.1205
     30 N          -4.3084   14.1996    0.7309 N.ar    1  UNL1       -0.2159
     31 C          -5.4791   13.8871    1.3914 C.ar    1  UNL1        0.1674
     32 H          -4.4360   13.8432   -2.3770 H       1  UNL1        0.0631
     33 H          -5.2933   14.3043   -3.8755 H       1  UNL1        0.0631
     34 H          -6.6700   12.0496   -3.0776 H       1  UNL1        0.0650
     35 H          -7.3845   14.7499   -3.4771 H       1  UNL1        0.0694
     36 H          -6.6167   15.3531   -1.2383 H       1  UNL1        0.0667
     37 H          -8.1951   12.8732   -0.5472 H       1  UNL1        0.0866
     38 H          -8.5920   12.9993    1.8702 H       1  UNL1        0.1030
     39 H          -2.3700   14.7213    1.1616 H       1  UNL1        0.1048
     40 H          -4.6139   13.4450    5.5011 H       1  UNL1        0.1438
     41 H          -4.5281   15.1886    5.3892 H       1  UNL1        0.1438
     42 H          -8.8211   15.3049   -0.0179 H       1  UNL1        0.2101
@<TRIPOS>BOND
     1     1     2    1
     2     1     3    1
     3     1     4    1
     4     1     8    1
     5     5     6    1
     6     5     7    1
     7     5     8    1
     8     5     9    1
     9     9    10    1
    10    10    11    1
    11    11    12    1
    12    11    13    1
    13    12    21    1
    14    13    14    1
    15    13    19    1
    16    14    15    1
    17    15    16    1
    18    15    17    1
    19    15    18    1
    20    19    20    1
    21    19    21    1
    22    21    22    1
    23    22    23   ar
    24    22    31   ar
    25    23    24   ar
    26    24    25   ar
    27    25    26   ar
    28    25    31   ar
    29    26    27    1
    30    26    28   ar
    31    28    29   ar
    32    29    30   ar
    33    30    31   ar
    34    32    10    1
    35    33    10    1
    36    11    34    1
    37    13    35    1
    38    19    36    1
    39    21    37    1
    40    38    23    1
    41    39    29    1
    42    40    27    1
    43    41    27    1
    44    42    20    1
@<TRIPOS>SUBSTRUCTURE
     1 UNL1        1 TEMP              0 ****  ****    0 ROOT

########## Name:	17	-357.958  0.971333
@<TRIPOS>MOLECULE
af2_protein.mol217	
 42 44 1 0 0
SMALL
GASTEIGER


@<TRIPOS>ATOM
      1 P          -0.5867    9.6039   -3.9361 P.3     1  UNL1        0.0544
      2 O           0.1528    9.7073   -5.2102 O.co2   1  UNL1       -0.6615
      3 O          -0.0706   10.4896   -2.8378 O.co2   1  UNL1       -0.6615
      4 O          -0.8321    8.2097   -3.4993 O.co2   1  UNL1       -0.6615
      5 P          -3.4673   10.7149   -3.3646 P.3     1  UNL1        0.2491
      6 O          -2.4081   11.4548   -2.6165 O.co2   1  UNL1       -0.6337
      7 O          -4.5044    9.9830   -2.5880 O.co2   1  UNL1       -0.6337
      8 O          -2.0806   10.2189   -4.2522 O.3     1  UNL1       -0.0930
      9 O          -4.2035   11.7991   -4.3305 O.3     1  UNL1       -0.2057
     10 C          -4.6695   13.0310   -3.8160 C.3     1  UNL1        0.1232
     11 C          -6.0785   12.7744   -3.3680 C.3     1  UNL1        0.1214
     12 O          -6.0059   12.5754   -1.9523 O.3     1  UNL1       -0.3453
     13 C          -7.0238   13.9846   -3.6008 C.3     1  UNL1        0.1593
     14 O          -8.3664   13.5000   -3.8917 O.3     1  UNL1       -0.2421
     15 P          -8.6405   12.3966   -5.1660 P.3     1  UNL1       -0.0004
     16 O          -9.7857   13.0466   -5.8505 O.co2   1  UNL1       -0.6646
     17 O          -7.3554   12.4359   -5.9094 O.co2   1  UNL1       -0.6646
     18 O          -8.8997   11.0722   -4.5237 O.co2   1  UNL1       -0.6646
     19 C          -6.9632   14.6666   -2.2394 C.3     1  UNL1        0.1329
     20 O          -8.1073   15.5266   -2.0416 O.3     1  UNL1       -0.3845
     21 C          -7.0385   13.3767   -1.3989 C.3     1  UNL1        0.1668
     22 N          -6.6836   13.4924    0.0335 N.ar    1  UNL1       -0.2855
     23 C          -7.5875   13.2657    1.0411 C.ar    1  UNL1        0.1004
     24 N          -7.1014   13.4240    2.2364 N.ar    1  UNL1       -0.2306
     25 C          -5.7340   13.7944    2.0304 C.ar    1  UNL1        0.1473
     26 C          -4.6490   14.0945    2.9601 C.ar    1  UNL1        0.1472
     27 N          -4.8353   14.1604    4.2928 N.pl3   1  UNL1       -0.3413
     28 N          -3.4335   14.3839    2.4254 N.ar    1  UNL1       -0.2188
     29 C          -3.3220   14.3950    1.0890 C.ar    1  UNL1        0.1205
     30 N          -4.2343   14.1505    0.1173 N.ar    1  UNL1       -0.2159
     31 C          -5.4613   13.8400    0.6675 C.ar    1  UNL1        0.1674
     32 H          -4.0407   13.2895   -2.9641 H       1  UNL1        0.0631
     33 H          -4.6509   13.8339   -4.5529 H       1  UNL1        0.0631
     34 H          -6.4754   11.8842   -3.8560 H       1  UNL1        0.0650
     35 H          -6.5984   14.5196   -4.4497 H       1  UNL1        0.0694
     36 H          -6.0378   15.1341   -1.9028 H       1  UNL1        0.0667
     37 H          -8.0084   12.8938   -1.5187 H       1  UNL1        0.0866
     38 H          -8.6129   12.9807    0.8571 H       1  UNL1        0.1030
     39 H          -2.3356   14.6412    0.7247 H       1  UNL1        0.1048
     40 H          -4.9618   13.3131    4.8277 H       1  UNL1        0.1438
     41 H          -4.8486   15.0573    4.7570 H       1  UNL1        0.1438
     42 H          -8.4191   15.4420   -1.1376 H       1  UNL1        0.2101
@<TRIPOS>BOND
     1     1     2    1
     2     1     3    1
     3     1     4    1
     4     1     8    1
     5     5     6    1
     6     5     7    1
     7     5     8    1
     8     5     9    1
     9     9    10    1
    10    10    11    1
    11    11    12    1
    12    11    13    1
    13    12    21    1
    14    13    14    1
    15    13    19    1
    16    14    15    1
    17    15    16    1
    18    15    17    1
    19    15    18    1
    20    19    20    1
    21    19    21    1
    22    21    22    1
    23    22    23   ar
    24    22    31   ar
    25    23    24   ar
    26    24    25   ar
    27    25    26   ar
    28    25    31   ar
    29    26    27    1
    30    26    28   ar
    31    28    29   ar
    32    29    30   ar
    33    30    31   ar
    34    32    10    1
    35    33    10    1
    36    11    34    1
    37    13    35    1
    38    19    36    1
    39    21    37    1
    40    38    23    1
    41    39    29    1
    42    40    27    1
    43    41    27    1
    44    42    20    1
@<TRIPOS>SUBSTRUCTURE
     1 UNL1        1 TEMP              0 ****  ****    0 ROOT

########## Name:	18	-331.45  0.965944
@<TRIPOS>MOLECULE
af2_protein.mol218	
 42 44 1 0 0
SMALL
GASTEIGER


@<TRIPOS>ATOM
      1 P          -1.4633    9.2640   -3.0289 P.3     1  UNL1        0.0544
      2 O          -2.2479    8.1367   -2.4862 O.co2   1  UNL1       -0.6615
      3 O          -0.8740    9.0206   -4.3892 O.co2   1  UNL1       -0.6615
      4 O          -0.4961    9.8377   -2.0644 O.co2   1  UNL1       -0.6615
      5 P          -2.7004   11.8596   -4.2905 P.3     1  UNL1        0.2491
      6 O          -1.8978   13.0871   -4.5701 O.co2   1  UNL1       -0.6337
      7 O          -2.4590   11.1292   -3.0167 O.co2   1  UNL1       -0.6337
      8 O          -2.5584   10.4637   -3.2964 O.3     1  UNL1       -0.0930
      9 O          -4.2984   12.1669   -4.3360 O.3     1  UNL1       -0.2057
     10 C          -4.8469   13.2641   -3.6327 C.3     1  UNL1        0.1232
     11 C          -6.1300   12.7621   -3.0381 C.3     1  UNL1        0.1214
     12 O          -5.8624   12.5658   -1.6456 O.3     1  UNL1       -0.3453
     13 C          -7.2897   13.7912   -3.1291 C.3     1  UNL1        0.1593
     14 O          -8.5533   13.0830   -3.2826 O.3     1  UNL1       -0.2421
     15 P          -8.8182   12.0460   -4.6134 P.3     1  UNL1       -0.0004
     16 O         -10.2024   12.4283   -4.9881 O.co2   1  UNL1       -0.6646
     17 O          -7.7645   12.4719   -5.5695 O.co2   1  UNL1       -0.6646
     18 O          -8.6146   10.6548   -4.1064 O.co2   1  UNL1       -0.6646
     19 C          -7.1915   14.4609   -1.7637 C.3     1  UNL1        0.1329
     20 O          -8.4361   15.1067   -1.4149 O.3     1  UNL1       -0.3845
     21 C          -6.9470   13.1699   -0.9578 C.3     1  UNL1        0.1668
     22 N          -6.4554   13.3325    0.4290 N.ar    1  UNL1       -0.2855
     23 C          -7.2716   13.2000    1.5244 C.ar    1  UNL1        0.1004
     24 N          -6.6694   13.3874    2.6613 N.ar    1  UNL1       -0.2306
     25 C          -5.3109   13.6758    2.3139 C.ar    1  UNL1        0.1473
     26 C          -4.1310   13.9610    3.1252 C.ar    1  UNL1        0.1472
     27 N          -4.1893   14.0978    4.4642 N.pl3   1  UNL1       -0.3413
     28 N          -2.9580   14.1615    2.4688 N.ar    1  UNL1       -0.2188
     29 C          -2.9708   14.1054    1.1289 C.ar    1  UNL1        0.1205
     30 N          -3.9802   13.8646    0.2573 N.ar    1  UNL1       -0.2159
     31 C          -5.1641   13.6444    0.9313 C.ar    1  UNL1        0.1674
     32 H          -4.1784   13.6204   -2.8489 H       1  UNL1        0.0631
     33 H          -5.0513   14.0647   -4.3434 H       1  UNL1        0.0631
     34 H          -6.4212   11.8209   -3.5044 H       1  UNL1        0.0650
     35 H          -7.1005   14.4595   -3.9691 H       1  UNL1        0.0694
     36 H          -6.3502   15.1534   -1.7359 H       1  UNL1        0.0667
     37 H          -7.9458   12.7335   -0.9647 H       1  UNL1        0.0866
     38 H          -8.3221   12.9609    1.4486 H       1  UNL1        0.1030
     39 H          -2.0119   14.2826    0.6648 H       1  UNL1        0.1048
     40 H          -4.3060   13.2837    5.0505 H       1  UNL1        0.1438
     41 H          -4.1164   15.0145    4.8818 H       1  UNL1        0.1438
     42 H          -8.5231   15.1396   -0.4595 H       1  UNL1        0.2101
@<TRIPOS>BOND
     1     1     2    1
     2     1     3    1
     3     1     4    1
     4     1     8    1
     5     5     6    1
     6     5     7    1
     7     5     8    1
     8     5     9    1
     9     9    10    1
    10    10    11    1
    11    11    12    1
    12    11    13    1
    13    12    21    1
    14    13    14    1
    15    13    19    1
    16    14    15    1
    17    15    16    1
    18    15    17    1
    19    15    18    1
    20    19    20    1
    21    19    21    1
    22    21    22    1
    23    22    23   ar
    24    22    31   ar
    25    23    24   ar
    26    24    25   ar
    27    25    26   ar
    28    25    31   ar
    29    26    27    1
    30    26    28   ar
    31    28    29   ar
    32    29    30   ar
    33    30    31   ar
    34    32    10    1
    35    33    10    1
    36    11    34    1
    37    13    35    1
    38    19    36    1
    39    21    37    1
    40    38    23    1
    41    39    29    1
    42    40    27    1
    43    41    27    1
    44    42    20    1
@<TRIPOS>SUBSTRUCTURE
     1 UNL1        1 TEMP              0 ****  ****    0 ROOT

########## Name:	19	-375.02  0.966281
@<TRIPOS>MOLECULE
af2_protein.mol219	
 42 44 1 0 0
SMALL
GASTEIGER


@<TRIPOS>ATOM
      1 P          -1.2295    9.1062   -3.2048 P.3     1  UNL1        0.0544
      2 O          -1.7388    8.1484   -2.2027 O.co2   1  UNL1       -0.6615
      3 O          -1.5139    8.7316   -4.6316 O.co2   1  UNL1       -0.6615
      4 O           0.1742    9.5208   -2.9755 O.co2   1  UNL1       -0.6615
      5 P          -2.4997   11.9000   -3.8681 P.3     1  UNL1        0.2491
      6 O          -2.9393   11.2887   -5.1574 O.co2   1  UNL1       -0.6337
      7 O          -1.5345   13.0317   -3.9124 O.co2   1  UNL1       -0.6337
      8 O          -2.1176   10.4748   -2.9852 O.3     1  UNL1       -0.0930
      9 O          -3.8714   12.4482   -3.1837 O.3     1  UNL1       -0.2057
     10 C          -4.7965   13.2171   -3.9270 C.3     1  UNL1        0.1232
     11 C          -6.1500   12.8415   -3.3991 C.3     1  UNL1        0.1214
     12 O          -5.9744   12.6305   -1.9942 O.3     1  UNL1       -0.3453
     13 C          -7.2017   13.9741   -3.5524 C.3     1  UNL1        0.1593
     14 O          -8.5167   13.3864   -3.7702 O.3     1  UNL1       -0.2421
     15 P          -8.8279   12.4269   -5.1483 P.3     1  UNL1       -0.0004
     16 O         -10.0999   13.0286   -5.6201 O.co2   1  UNL1       -0.6646
     17 O          -7.6451   12.6980   -6.0046 O.co2   1  UNL1       -0.6646
     18 O          -8.8857   11.0126   -4.6686 O.co2   1  UNL1       -0.6646
     19 C          -7.1118   14.6410   -2.1851 C.3     1  UNL1        0.1329
     20 O          -8.3066   15.4029   -1.9029 O.3     1  UNL1       -0.3845
     21 C          -7.0317   13.3383   -1.3650 C.3     1  UNL1        0.1668
     22 N          -6.5993   13.4636    0.0452 N.ar    1  UNL1       -0.2855
     23 C          -7.4622   13.3076    1.1010 C.ar    1  UNL1        0.1004
     24 N          -6.9086   13.4633    2.2670 N.ar    1  UNL1       -0.2306
     25 C          -5.5354   13.7537    1.9854 C.ar    1  UNL1        0.1473
     26 C          -4.3903   14.0126    2.8534 C.ar    1  UNL1        0.1472
     27 N          -4.5054   14.1159    4.1917 N.pl3   1  UNL1       -0.3413
     28 N          -3.1894   14.2238    2.2530 N.ar    1  UNL1       -0.2188
     29 C          -3.1450   14.2014    0.9128 C.ar    1  UNL1        0.1205
     30 N          -4.1170   13.9876   -0.0069 N.ar    1  UNL1       -0.2159
     31 C          -5.3296   13.7563    0.6100 C.ar    1  UNL1        0.1674
     32 H          -4.1389   13.5145   -3.1101 H       1  UNL1        0.0631
     33 H          -4.8877   14.0285   -4.6489 H       1  UNL1        0.0631
     34 H          -6.5039   11.9286   -3.8781 H       1  UNL1        0.0650
     35 H          -6.9282   14.6538   -4.3594 H       1  UNL1        0.0694
     36 H          -6.2095   15.2438   -2.0834 H       1  UNL1        0.0667
     37 H          -8.0309   12.9071   -1.4257 H       1  UNL1        0.0866
     38 H          -8.5094   13.0756    0.9743 H       1  UNL1        0.1030
     39 H          -2.1664   14.3855    0.4948 H       1  UNL1        0.1048
     40 H          -4.6502   13.2880    4.7517 H       1  UNL1        0.1438
     41 H          -4.4470   15.0215    4.6351 H       1  UNL1        0.1438
     42 H          -8.4554   15.4259   -0.9548 H       1  UNL1        0.2101
@<TRIPOS>BOND
     1     1     2    1
     2     1     3    1
     3     1     4    1
     4     1     8    1
     5     5     6    1
     6     5     7    1
     7     5     8    1
     8     5     9    1
     9     9    10    1
    10    10    11    1
    11    11    12    1
    12    11    13    1
    13    12    21    1
    14    13    14    1
    15    13    19    1
    16    14    15    1
    17    15    16    1
    18    15    17    1
    19    15    18    1
    20    19    20    1
    21    19    21    1
    22    21    22    1
    23    22    23   ar
    24    22    31   ar
    25    23    24   ar
    26    24    25   ar
    27    25    26   ar
    28    25    31   ar
    29    26    27    1
    30    26    28   ar
    31    28    29   ar
    32    29    30   ar
    33    30    31   ar
    34    32    10    1
    35    33    10    1
    36    11    34    1
    37    13    35    1
    38    19    36    1
    39    21    37    1
    40    38    23    1
    41    39    29    1
    42    40    27    1
    43    41    27    1
    44    42    20    1
@<TRIPOS>SUBSTRUCTURE
     1 UNL1        1 TEMP              0 ****  ****    0 ROOT

########## Name:	0	-252.708  0.966527
@<TRIPOS>MOLECULE
af2_protein.mol20	
 42 44 1 0 0
SMALL
GASTEIGER


@<TRIPOS>ATOM
      1 P          -2.2882    8.9920   -4.2731 P.3     1  UNL1        0.0544
      2 O          -1.7896    9.0826   -5.6603 O.co2   1  UNL1       -0.6615
      3 O          -1.2960    9.4015   -3.2221 O.co2   1  UNL1       -0.6615
      4 O          -2.9739    7.7149   -3.9671 O.co2   1  UNL1       -0.6615
      5 P          -4.2788   11.0077   -2.9193 P.3     1  UNL1        0.2491
      6 O          -3.1891   11.3782   -1.9684 O.co2   1  UNL1       -0.6337
      7 O          -5.4738   10.2982   -2.3873 O.co2   1  UNL1       -0.6337
      8 O          -3.4611   10.1415   -4.1594 O.3     1  UNL1       -0.0930
      9 O          -4.7639   12.3863   -3.6368 O.3     1  UNL1       -0.2057
     10 C          -5.0855   13.5296   -2.8696 C.3     1  UNL1        0.1232
     11 C          -6.1536   13.0869   -1.9131 C.3     1  UNL1        0.1214
     12 O          -5.4986   12.9143   -0.6520 O.3     1  UNL1       -0.3453
     13 C          -7.2620   14.1534   -1.6982 C.3     1  UNL1        0.1593
     14 O          -8.5342   13.4863   -1.4562 O.3     1  UNL1       -0.2421
     15 P          -9.2451   12.4985   -2.6543 P.3     1  UNL1       -0.0004
     16 O         -10.6349   13.0191   -2.6501 O.co2   1  UNL1       -0.6646
     17 O          -8.4490   12.8327   -3.8627 O.co2   1  UNL1       -0.6646
     18 O          -9.0501   11.0873   -2.2023 O.co2   1  UNL1       -0.6646
     19 C          -6.7540   14.8514   -0.4424 C.3     1  UNL1        0.1329
     20 O          -7.8262   15.5483    0.2303 O.3     1  UNL1       -0.3845
     21 C          -6.3205   13.5721    0.3002 C.3     1  UNL1        0.1668
     22 N          -5.4433   13.7502    1.4792 N.ar    1  UNL1       -0.2855
     23 C          -5.8340   13.4121    2.7507 C.ar    1  UNL1        0.1004
     24 N          -4.9375   13.6479    3.6623 N.ar    1  UNL1       -0.2306
     25 C          -3.8258   14.2002    2.9493 C.ar    1  UNL1        0.1473
     26 C          -2.5095   14.6559    3.3868 C.ar    1  UNL1        0.1472
     27 N          -2.1570   14.7094    4.6860 N.pl3   1  UNL1       -0.3413
     28 N          -1.6558   15.1038    2.4288 N.ar    1  UNL1       -0.2188
     29 C          -2.0876   15.1163    1.1592 C.ar    1  UNL1        0.1205
     30 N          -3.2710   14.7389    0.6174 N.ar    1  UNL1       -0.2159
     31 C          -4.1261   14.2687    1.5932 C.ar    1  UNL1        0.1674
     32 H          -4.2091   13.8808   -2.3249 H       1  UNL1        0.0631
     33 H          -5.4661   14.3199   -3.5167 H       1  UNL1        0.0631
     34 H          -6.5925   12.1457   -2.2441 H       1  UNL1        0.0650
     35 H          -7.3246   14.8415   -2.5412 H       1  UNL1        0.0694
     36 H          -5.9095   15.5074   -0.6532 H       1  UNL1        0.0667
     37 H          -7.1862   12.9595    0.5519 H       1  UNL1        0.0866
     38 H          -6.8015   12.9872    2.9744 H       1  UNL1        0.1030
     39 H          -1.3687   15.4917    0.4460 H       1  UNL1        0.1048
     40 H          -1.9490   13.8584    5.1885 H       1  UNL1        0.1438
     41 H          -2.1010   15.6007    5.1577 H       1  UNL1        0.1438
     42 H          -7.6451   15.5815    1.1725 H       1  UNL1        0.2101
@<TRIPOS>BOND
     1     1     2    1
     2     1     3    1
     3     1     4    1
     4     1     8    1
     5     5     6    1
     6     5     7    1
     7     5     8    1
     8     5     9    1
     9     9    10    1
    10    10    11    1
    11    11    12    1
    12    11    13    1
    13    12    21    1
    14    13    14    1
    15    13    19    1
    16    14    15    1
    17    15    16    1
    18    15    17    1
    19    15    18    1
    20    19    20    1
    21    19    21    1
    22    21    22    1
    23    22    23   ar
    24    22    31   ar
    25    23    24   ar
    26    24    25   ar
    27    25    26   ar
    28    25    31   ar
    29    26    27    1
    30    26    28   ar
    31    28    29   ar
    32    29    30   ar
    33    30    31   ar
    34    32    10    1
    35    33    10    1
    36    11    34    1
    37    13    35    1
    38    19    36    1
    39    21    37    1
    40    38    23    1
    41    39    29    1
    42    40    27    1
    43    41    27    1
    44    42    20    1
@<TRIPOS>SUBSTRUCTURE
     1 UNL1        1 TEMP              0 ****  ****    0 ROOT

########## Name:	1	225.158  0.964559
@<TRIPOS>MOLECULE
af2_protein.mol21	
 42 44 1 0 0
SMALL
GASTEIGER


@<TRIPOS>ATOM
      1 P          -8.1014   17.9797   -3.5959 P.3     1  UNL1        0.0544
      2 O          -8.7879   18.2830   -4.8678 O.co2   1  UNL1       -0.6615
      3 O          -9.0103   17.5484   -2.4801 O.co2   1  UNL1       -0.6615
      4 O          -7.1183   19.0099   -3.1872 O.co2   1  UNL1       -0.6615
      5 P          -6.4381   15.3842   -2.9994 P.3     1  UNL1        0.2491
      6 O          -7.4459   15.0301   -1.9564 O.co2   1  UNL1       -0.6337
      7 O          -5.0569   15.7265   -2.5640 O.co2   1  UNL1       -0.6337
      8 O          -7.2041   16.6333   -3.8993 O.3     1  UNL1       -0.0930
      9 O          -6.3663   14.1251   -4.0289 O.3     1  UNL1       -0.2057
     10 C          -6.2036   12.8046   -3.5504 C.3     1  UNL1        0.1232
     11 C          -4.9469   12.8241   -2.7305 C.3     1  UNL1        0.1214
     12 O          -5.3744   12.8427   -1.3645 O.3     1  UNL1       -0.3453
     13 C          -4.0803   11.5478   -2.9098 C.3     1  UNL1        0.1593
     14 O          -2.6723   11.8969   -2.7762 O.3     1  UNL1       -0.2421
     15 P          -1.9284   12.9668   -3.8801 P.3     1  UNL1       -0.0004
     16 O          -0.6984   12.2061   -4.2131 O.co2   1  UNL1       -0.6646
     17 O          -2.9320   13.0542   -4.9714 O.co2   1  UNL1       -0.6646
     18 O          -1.7479   14.2596   -3.1522 O.co2   1  UNL1       -0.6646
     19 C          -4.5569   10.7053   -1.7328 C.3     1  UNL1        0.1329
     20 O          -3.5835    9.6922   -1.3955 O.3     1  UNL1       -0.3845
     21 C          -4.5972   11.8543   -0.7060 C.3     1  UNL1        0.1668
     22 N          -5.3271   11.5959    0.5556 N.ar    1  UNL1       -0.2855
     23 C          -4.7062   11.5748    1.7794 C.ar    1  UNL1        0.1004
     24 N          -5.5030   11.3219    2.7751 N.ar    1  UNL1       -0.2306
     25 C          -6.7934   11.1535    2.1787 C.ar    1  UNL1        0.1473
     26 C          -8.1074   10.8699    2.7488 C.ar    1  UNL1        0.1472
     27 N          -8.2868   10.6069    4.0579 N.pl3   1  UNL1       -0.3413
     28 N          -9.1581   10.8056    1.8892 N.ar    1  UNL1       -0.2188
     29 C          -8.9124   10.9842    0.5829 C.ar    1  UNL1        0.1205
     30 N          -7.7580   11.2399   -0.0792 N.ar    1  UNL1       -0.2159
     31 C          -6.6986   11.3215    0.8015 C.ar    1  UNL1        0.1674
     32 H          -7.0551   12.5158   -2.9343 H       1  UNL1        0.0631
     33 H          -6.0948   12.1140   -4.3866 H       1  UNL1        0.0631
     34 H          -4.3607   13.7149   -2.9563 H       1  UNL1        0.0650
     35 H          -4.2825   11.0567   -3.8616 H       1  UNL1        0.0694
     36 H          -5.5449   10.2800   -1.9087 H       1  UNL1        0.0667
     37 H          -3.5928   12.2253   -0.5020 H       1  UNL1        0.0866
     38 H          -3.6482   11.7528    1.9044 H       1  UNL1        0.1030
     39 H          -9.7844   10.9117   -0.0500 H       1  UNL1        0.1048
     40 H          -8.2347   11.3543    4.7351 H       1  UNL1        0.1438
     41 H          -8.4732    9.6620    4.3621 H       1  UNL1        0.1438
     42 H          -3.6403    9.4928   -0.4581 H       1  UNL1        0.2101
@<TRIPOS>BOND
     1     1     2    1
     2     1     3    1
     3     1     4    1
     4     1     8    1
     5     5     6    1
     6     5     7    1
     7     5     8    1
     8     5     9    1
     9     9    10    1
    10    10    11    1
    11    11    12    1
    12    11    13    1
    13    12    21    1
    14    13    14    1
    15    13    19    1
    16    14    15    1
    17    15    16    1
    18    15    17    1
    19    15    18    1
    20    19    20    1
    21    19    21    1
    22    21    22    1
    23    22    23   ar
    24    22    31   ar
    25    23    24   ar
    26    24    25   ar
    27    25    26   ar
    28    25    31   ar
    29    26    27    1
    30    26    28   ar
    31    28    29   ar
    32    29    30   ar
    33    30    31   ar
    34    32    10    1
    35    33    10    1
    36    11    34    1
    37    13    35    1
    38    19    36    1
    39    21    37    1
    40    38    23    1
    41    39    29    1
    42    40    27    1
    43    41    27    1
    44    42    20    1
@<TRIPOS>SUBSTRUCTURE
     1 UNL1        1 TEMP              0 ****  ****    0 ROOT

########## Name:	2	-78.7711  0.964364
@<TRIPOS>MOLECULE
af2_protein.mol22	
 42 44 1 0 0
SMALL
GASTEIGER


@<TRIPOS>ATOM
      1 P          -4.3013   13.5822    4.1354 P.3     1  UNL1        0.0544
      2 O          -4.9553   13.2375    5.4139 O.co2   1  UNL1       -0.6615
      3 O          -3.2377   12.6171    3.6949 O.co2   1  UNL1       -0.6615
      4 O          -3.8824   15.0002    4.0419 O.co2   1  UNL1       -0.6615
      5 P          -5.5651   13.2071    1.2856 P.3     1  UNL1        0.2491
      6 O          -4.4905   12.2145    0.9871 O.co2   1  UNL1       -0.6337
      7 O          -5.5728   14.4916    0.5344 O.co2   1  UNL1       -0.6337
      8 O          -5.4717   13.4090    2.9907 O.3     1  UNL1       -0.0930
      9 O          -6.9849   12.4487    1.0420 O.3     1  UNL1       -0.2057
     10 C          -7.2302   11.7337   -0.1530 C.3     1  UNL1        0.1232
     11 C          -7.0177   12.7194   -1.2643 C.3     1  UNL1        0.1214
     12 O          -5.7317   12.4141   -1.8139 O.3     1  UNL1       -0.3453
     13 C          -8.0443   12.5684   -2.4199 C.3     1  UNL1        0.1593
     14 O          -8.3063   13.8754   -3.0076 O.3     1  UNL1       -0.2421
     15 P          -9.0199   15.1220   -2.0839 P.3     1  UNL1       -0.0004
     16 O         -10.0825   15.5788   -3.0138 O.co2   1  UNL1       -0.6646
     17 O          -9.5023   14.3970   -0.8808 O.co2   1  UNL1       -0.6646
     18 O          -7.9263   16.0934   -1.7770 O.co2   1  UNL1       -0.6646
     19 C          -7.2708   11.6733   -3.3806 C.3     1  UNL1        0.1329
     20 O          -7.7992   11.7770   -4.7214 O.3     1  UNL1       -0.3845
     21 C          -5.9131   12.3855   -3.2214 C.3     1  UNL1        0.1668
     22 N          -4.7210   11.6697   -3.7291 N.ar    1  UNL1       -0.2855
     23 C          -3.9588   12.1440   -4.7674 C.ar    1  UNL1        0.1004
     24 N          -2.9573   11.3780   -5.0843 N.ar    1  UNL1       -0.2306
     25 C          -3.0393   10.2730   -4.1779 C.ar    1  UNL1        0.1473
     26 C          -2.2073    9.0862   -4.0013 C.ar    1  UNL1        0.1472
     27 N          -1.1833    8.7911   -4.8255 N.pl3   1  UNL1       -0.3413
     28 N          -2.5486    8.2299   -3.0026 N.ar    1  UNL1       -0.2188
     29 C          -3.6319    8.5220   -2.2680 C.ar    1  UNL1        0.1205
     30 N          -4.4921    9.5675   -2.3265 N.ar    1  UNL1       -0.2159
     31 C          -4.1292   10.4417   -3.3308 C.ar    1  UNL1        0.1674
     32 H          -6.5348   10.8995   -0.2465 H       1  UNL1        0.0631
     33 H          -8.2571   11.3689   -0.1670 H       1  UNL1        0.0631
     34 H          -7.0317   13.7377   -0.8757 H       1  UNL1        0.0650
     35 H          -8.9631   12.0909   -2.0796 H       1  UNL1        0.0694
     36 H          -7.2331   10.6402   -3.0352 H       1  UNL1        0.0667
     37 H          -5.9577   13.3967   -3.6257 H       1  UNL1        0.0866
     38 H          -4.1724   13.0723   -5.2764 H       1  UNL1        0.1030
     39 H          -3.8576    7.7997   -1.4974 H       1  UNL1        0.1048
     40 H          -0.3215    9.3147   -4.7679 H       1  UNL1        0.1438
     41 H          -1.2774    8.0463   -5.5011 H       1  UNL1        0.1438
     42 H          -7.0973   11.6137   -5.3558 H       1  UNL1        0.2101
@<TRIPOS>BOND
     1     1     2    1
     2     1     3    1
     3     1     4    1
     4     1     8    1
     5     5     6    1
     6     5     7    1
     7     5     8    1
     8     5     9    1
     9     9    10    1
    10    10    11    1
    11    11    12    1
    12    11    13    1
    13    12    21    1
    14    13    14    1
    15    13    19    1
    16    14    15    1
    17    15    16    1
    18    15    17    1
    19    15    18    1
    20    19    20    1
    21    19    21    1
    22    21    22    1
    23    22    23   ar
    24    22    31   ar
    25    23    24   ar
    26    24    25   ar
    27    25    26   ar
    28    25    31   ar
    29    26    27    1
    30    26    28   ar
    31    28    29   ar
    32    29    30   ar
    33    30    31   ar
    34    32    10    1
    35    33    10    1
    36    11    34    1
    37    13    35    1
    38    19    36    1
    39    21    37    1
    40    38    23    1
    41    39    29    1
    42    40    27    1
    43    41    27    1
    44    42    20    1
@<TRIPOS>SUBSTRUCTURE
     1 UNL1        1 TEMP              0 ****  ****    0 ROOT

########## Name:	3	-330.012  0.967459
@<TRIPOS>MOLECULE
af2_protein.mol23	
 42 44 1 0 0
SMALL
GASTEIGER


@<TRIPOS>ATOM
      1 P          -1.7849    9.4113   -4.7674 P.3     1  UNL1        0.0544
      2 O          -1.1250    9.6419   -6.0683 O.co2   1  UNL1       -0.6615
      3 O          -0.9410    9.7408   -3.5690 O.co2   1  UNL1       -0.6615
      4 O          -2.4614    8.0973   -4.6654 O.co2   1  UNL1       -0.6615
      5 P          -3.9884   11.2497   -3.4932 P.3     1  UNL1        0.2491
      6 O          -3.0344   11.5518   -2.3852 O.co2   1  UNL1       -0.6337
      7 O          -5.2157   10.4688   -3.1794 O.co2   1  UNL1       -0.6337
      8 O          -2.9991   10.5206   -4.6959 O.3     1  UNL1       -0.0930
      9 O          -4.4269   12.6791   -4.1373 O.3     1  UNL1       -0.2057
     10 C          -4.8755   13.7386   -3.3154 C.3     1  UNL1        0.1232
     11 C          -6.0369   13.1861   -2.5423 C.3     1  UNL1        0.1214
     12 O          -5.5344   12.9096   -1.2308 O.3     1  UNL1       -0.3453
     13 C          -7.1967   14.2047   -2.3704 C.3     1  UNL1        0.1593
     14 O          -8.4668   13.4917   -2.3490 O.3     1  UNL1       -0.2421
     15 P          -8.9953   12.6061   -3.7103 P.3     1  UNL1       -0.0004
     16 O         -10.3913   13.0952   -3.8308 O.co2   1  UNL1       -0.6646
     17 O          -8.0698   13.0686   -4.7757 O.co2   1  UNL1       -0.6646
     18 O          -8.8115   11.1631   -3.3673 O.co2   1  UNL1       -0.6646
     19 C          -6.8672   14.7921   -1.0035 C.3     1  UNL1        0.1329
     20 O          -8.0348   15.4006   -0.4082 O.3     1  UNL1       -0.3845
     21 C          -6.4862   13.4580   -0.3319 C.3     1  UNL1        0.1668
     22 N          -5.7645   13.5428    0.9577 N.ar    1  UNL1       -0.2855
     23 C          -6.2954   13.0789    2.1353 C.ar    1  UNL1        0.1004
     24 N          -5.5240   13.2467    3.1683 N.ar    1  UNL1       -0.2306
     25 C          -4.3523   13.8863    2.6512 C.ar    1  UNL1        0.1473
     26 C          -3.1140   14.3260    3.2876 C.ar    1  UNL1        0.1472
     27 N          -2.9235   14.2647    4.6199 N.pl3   1  UNL1       -0.3413
     28 N          -2.1653   14.8793    2.4870 N.ar    1  UNL1       -0.2188
     29 C          -2.4402   15.0019    1.1801 C.ar    1  UNL1        0.1205
     30 N          -3.5366   14.6526    0.4642 N.ar    1  UNL1       -0.2159
     31 C          -4.4881   14.0754    1.2802 C.ar    1  UNL1        0.1674
     32 H          -4.0832   14.0552   -2.6370 H       1  UNL1        0.0631
     33 H          -5.1999   14.5780   -3.9303 H       1  UNL1        0.0631
     34 H          -6.4021   12.2712   -3.0089 H       1  UNL1        0.0650
     35 H          -7.1787   14.9674   -3.1489 H       1  UNL1        0.0694
     36 H          -6.0248   15.4823   -1.0480 H       1  UNL1        0.0667
     37 H          -7.3560   12.8068   -0.2457 H       1  UNL1        0.0866
     38 H          -7.2688   12.6151    2.1983 H       1  UNL1        0.1030
     39 H          -1.6526   15.4573    0.5983 H       1  UNL1        0.1048
     40 H          -2.7508   13.3747    5.0650 H       1  UNL1        0.1438
     41 H          -2.9536   15.1088    5.1736 H       1  UNL1        0.1438
     42 H          -7.9704   15.3490    0.5483 H       1  UNL1        0.2101
@<TRIPOS>BOND
     1     1     2    1
     2     1     3    1
     3     1     4    1
     4     1     8    1
     5     5     6    1
     6     5     7    1
     7     5     8    1
     8     5     9    1
     9     9    10    1
    10    10    11    1
    11    11    12    1
    12    11    13    1
    13    12    21    1
    14    13    14    1
    15    13    19    1
    16    14    15    1
    17    15    16    1
    18    15    17    1
    19    15    18    1
    20    19    20    1
    21    19    21    1
    22    21    22    1
    23    22    23   ar
    24    22    31   ar
    25    23    24   ar
    26    24    25   ar
    27    25    26   ar
    28    25    31   ar
    29    26    27    1
    30    26    28   ar
    31    28    29   ar
    32    29    30   ar
    33    30    31   ar
    34    32    10    1
    35    33    10    1
    36    11    34    1
    37    13    35    1
    38    19    36    1
    39    21    37    1
    40    38    23    1
    41    39    29    1
    42    40    27    1
    43    41    27    1
    44    42    20    1
@<TRIPOS>SUBSTRUCTURE
     1 UNL1        1 TEMP              0 ****  ****    0 ROOT

########## Name:	4	24.3567  0.962604
@<TRIPOS>MOLECULE
af2_protein.mol24	
 42 44 1 0 0
SMALL
GASTEIGER


@<TRIPOS>ATOM
      1 P          -8.5803   14.4058    4.1165 P.3     1  UNL1        0.0544
      2 O          -8.6661   15.5530    5.0424 O.co2   1  UNL1       -0.6615
      3 O          -9.3439   14.5765    2.8340 O.co2   1  UNL1       -0.6615
      4 O          -8.8109   13.0947    4.7667 O.co2   1  UNL1       -0.6615
      5 P          -6.0989   13.6899    2.3307 P.3     1  UNL1        0.2491
      6 O          -6.9438   13.9507    1.1277 O.co2   1  UNL1       -0.6337
      7 O          -5.6426   12.2972    2.5886 O.co2   1  UNL1       -0.6337
      8 O          -7.0102   14.3647    3.6233 O.3     1  UNL1       -0.0930
      9 O          -4.7935   14.6546    2.2050 O.3     1  UNL1       -0.2057
     10 C          -4.0338   14.6963    1.0131 C.3     1  UNL1        0.1232
     11 C          -3.6087   13.2804    0.7553 C.3     1  UNL1        0.1214
     12 O          -4.4710   12.7984   -0.2807 O.3     1  UNL1       -0.3453
     13 C          -2.1566   13.1667    0.2164 C.3     1  UNL1        0.1593
     14 O          -1.5592   11.9272    0.6947 O.3     1  UNL1       -0.2421
     15 P          -1.3208   11.6590    2.3644 P.3     1  UNL1       -0.0004
     16 O           0.0881   11.1927    2.3690 O.co2   1  UNL1       -0.6646
     17 O          -1.5413   13.0088    2.9431 O.co2   1  UNL1       -0.6646
     18 O          -2.3616   10.6709    2.7819 O.co2   1  UNL1       -0.6646
     19 C          -2.4072   13.1181   -1.2860 C.3     1  UNL1        0.1329
     20 O          -1.2800   12.5373   -1.9787 O.3     1  UNL1       -0.3845
     21 C          -3.6199   12.1684   -1.2258 C.3     1  UNL1        0.1668
     22 N          -4.4463   12.0640   -2.4494 N.ar    1  UNL1       -0.2855
     23 C          -4.5653   10.8992   -3.1656 C.ar    1  UNL1        0.1004
     24 N          -5.3239   10.9970   -4.2168 N.ar    1  UNL1       -0.2306
     25 C          -5.7682   12.3578   -4.2233 C.ar    1  UNL1        0.1473
     26 C          -6.6494   13.0970   -5.1227 C.ar    1  UNL1        0.1472
     27 N          -7.1481   12.5577   -6.2521 N.pl3   1  UNL1       -0.3413
     28 N          -6.8992   14.3980   -4.8191 N.ar    1  UNL1       -0.2188
     29 C          -6.3050   14.9146   -3.7334 C.ar    1  UNL1        0.1205
     30 N          -5.4663   14.3566   -2.8270 N.ar    1  UNL1       -0.2159
     31 C          -5.2314   13.0312   -3.1314 C.ar    1  UNL1        0.1674
     32 H          -4.6415   15.0671    0.1877 H       1  UNL1        0.0631
     33 H          -3.1586   15.3315    1.1489 H       1  UNL1        0.0631
     34 H          -3.7265   12.6791    1.6568 H       1  UNL1        0.0650
     35 H          -1.5571   14.0335    0.4945 H       1  UNL1        0.0694
     36 H          -2.6736   14.0959   -1.6873 H       1  UNL1        0.0667
     37 H          -3.3196   11.1804   -0.8770 H       1  UNL1        0.0866
     38 H          -4.0719    9.9816   -2.8806 H       1  UNL1        0.1030
     39 H          -6.5342   15.9539   -3.5503 H       1  UNL1        0.1048
     40 H          -7.8919   11.8764   -6.2009 H       1  UNL1        0.1438
     41 H          -6.7781   12.8347   -7.1501 H       1  UNL1        0.1438
     42 H          -1.5851   12.1017   -2.7780 H       1  UNL1        0.2101
@<TRIPOS>BOND
     1     1     2    1
     2     1     3    1
     3     1     4    1
     4     1     8    1
     5     5     6    1
     6     5     7    1
     7     5     8    1
     8     5     9    1
     9     9    10    1
    10    10    11    1
    11    11    12    1
    12    11    13    1
    13    12    21    1
    14    13    14    1
    15    13    19    1
    16    14    15    1
    17    15    16    1
    18    15    17    1
    19    15    18    1
    20    19    20    1
    21    19    21    1
    22    21    22    1
    23    22    23   ar
    24    22    31   ar
    25    23    24   ar
    26    24    25   ar
    27    25    26   ar
    28    25    31   ar
    29    26    27    1
    30    26    28   ar
    31    28    29   ar
    32    29    30   ar
    33    30    31   ar
    34    32    10    1
    35    33    10    1
    36    11    34    1
    37    13    35    1
    38    19    36    1
    39    21    37    1
    40    38    23    1
    41    39    29    1
    42    40    27    1
    43    41    27    1
    44    42    20    1
@<TRIPOS>SUBSTRUCTURE
     1 UNL1        1 TEMP              0 ****  ****    0 ROOT

########## Name:	5	-316.491  0.970268
@<TRIPOS>MOLECULE
af2_protein.mol25	
 42 44 1 0 0
SMALL
GASTEIGER


@<TRIPOS>ATOM
      1 P          -1.9061    8.9073   -4.0551 P.3     1  UNL1        0.0544
      2 O          -1.0449    9.0855   -5.2415 O.co2   1  UNL1       -0.6615
      3 O          -1.2465    9.2366   -2.7461 O.co2   1  UNL1       -0.6615
      4 O          -2.6377    7.6192   -4.0361 O.co2   1  UNL1       -0.6615
      5 P          -4.2120   10.8471   -3.1723 P.3     1  UNL1        0.2491
      6 O          -3.4306   11.1431   -1.9349 O.co2   1  UNL1       -0.6337
      7 O          -5.5006   10.1149   -3.0393 O.co2   1  UNL1       -0.6337
      8 O          -3.0756   10.0577   -4.1932 O.3     1  UNL1       -0.0930
      9 O          -4.4931   12.2748   -3.9023 O.3     1  UNL1       -0.2057
     10 C          -5.0246   13.3676   -3.1792 C.3     1  UNL1        0.1232
     11 C          -6.3111   12.8721   -2.5864 C.3     1  UNL1        0.1214
     12 O          -6.0281   12.6098   -1.2080 O.3     1  UNL1       -0.3453
     13 C          -7.4457   13.9324   -2.6153 C.3     1  UNL1        0.1593
     14 O          -8.7289   13.2626   -2.7789 O.3     1  UNL1       -0.2421
     15 P          -9.0722   12.3635   -4.1898 P.3     1  UNL1       -0.0004
     16 O         -10.4139   12.8957   -4.5347 O.co2   1  UNL1       -0.6646
     17 O          -7.9766   12.7700   -5.1064 O.co2   1  UNL1       -0.6646
     18 O          -8.9963   10.9236   -3.7966 O.co2   1  UNL1       -0.6646
     19 C          -7.3106   14.5403   -1.2245 C.3     1  UNL1        0.1329
     20 O          -8.5333   15.2009   -0.8290 O.3     1  UNL1       -0.3845
     21 C          -7.0870   13.2103   -0.4781 C.3     1  UNL1        0.1668
     22 N          -6.5711   13.3012    0.9064 N.ar    1  UNL1       -0.2855
     23 C          -7.2944   12.8828    1.9952 C.ar    1  UNL1        0.1004
     24 N          -6.6867   13.0490    3.1325 N.ar    1  UNL1       -0.2306
     25 C          -5.4265   13.6370    2.7926 C.ar    1  UNL1        0.1473
     26 C          -4.2865   14.0502    3.6058 C.ar    1  UNL1        0.1472
     27 N          -4.3069   14.0137    4.9524 N.pl3   1  UNL1       -0.3413
     28 N          -3.2057   14.5528    2.9527 N.ar    1  UNL1       -0.2188
     29 C          -3.2704   14.6539    1.6170 C.ar    1  UNL1        0.1205
     30 N          -4.2547   14.3247    0.7457 N.ar    1  UNL1       -0.2159
     31 C          -5.3415   13.7986    1.4140 C.ar    1  UNL1        0.1674
     32 H          -4.3359   13.6734   -2.3916 H       1  UNL1        0.0631
     33 H          -5.2192   14.2027   -3.8520 H       1  UNL1        0.0631
     34 H          -6.6327   11.9592   -3.0877 H       1  UNL1        0.0650
     35 H          -7.2796   14.6756   -3.3950 H       1  UNL1        0.0694
     36 H          -6.4469   15.2009   -1.1497 H       1  UNL1        0.0667
     37 H          -7.9828   12.5905   -0.5165 H       1  UNL1        0.0866
     38 H          -8.2820   12.4531    1.9143 H       1  UNL1        0.1030
     39 H          -2.3861   15.0692    1.1567 H       1  UNL1        0.1048
     40 H          -4.2377   13.1291    5.4349 H       1  UNL1        0.1438
     41 H          -4.3916   14.8710    5.4795 H       1  UNL1        0.1438
     42 H          -8.6197   15.1696    0.1266 H       1  UNL1        0.2101
@<TRIPOS>BOND
     1     1     2    1
     2     1     3    1
     3     1     4    1
     4     1     8    1
     5     5     6    1
     6     5     7    1
     7     5     8    1
     8     5     9    1
     9     9    10    1
    10    10    11    1
    11    11    12    1
    12    11    13    1
    13    12    21    1
    14    13    14    1
    15    13    19    1
    16    14    15    1
    17    15    16    1
    18    15    17    1
    19    15    18    1
    20    19    20    1
    21    19    21    1
    22    21    22    1
    23    22    23   ar
    24    22    31   ar
    25    23    24   ar
    26    24    25   ar
    27    25    26   ar
    28    25    31   ar
    29    26    27    1
    30    26    28   ar
    31    28    29   ar
    32    29    30   ar
    33    30    31   ar
    34    32    10    1
    35    33    10    1
    36    11    34    1
    37    13    35    1
    38    19    36    1
    39    21    37    1
    40    38    23    1
    41    39    29    1
    42    40    27    1
    43    41    27    1
    44    42    20    1
@<TRIPOS>SUBSTRUCTURE
     1 UNL1        1 TEMP              0 ****  ****    0 ROOT

########## Name:	6	-230.145  0.97242
@<TRIPOS>MOLECULE
af2_protein.mol26	
 42 44 1 0 0
SMALL
GASTEIGER


@<TRIPOS>ATOM
      1 P          -2.6491   10.0511   -5.6633 P.3     1  UNL1        0.0544
      2 O          -2.4386   10.3607   -7.0919 O.co2   1  UNL1       -0.6615
      3 O          -1.5094   10.4365   -4.7635 O.co2   1  UNL1       -0.6615
      4 O          -3.1535    8.6800   -5.4172 O.co2   1  UNL1       -0.6615
      5 P          -4.5002   11.6632   -3.7053 P.3     1  UNL1        0.2491
      6 O          -3.2814   12.0325   -2.9261 O.co2   1  UNL1       -0.6337
      7 O          -5.5057   10.7701   -3.0683 O.co2   1  UNL1       -0.6337
      8 O          -3.8693   11.0452   -5.1808 O.3     1  UNL1       -0.0930
      9 O          -5.2286   13.0572   -4.1253 O.3     1  UNL1       -0.2057
     10 C          -5.4894   14.0589   -3.1620 C.3     1  UNL1        0.1232
     11 C          -6.3107   13.3920   -2.0980 C.3     1  UNL1        0.1214
     12 O          -5.4113   13.1412   -1.0129 O.3     1  UNL1       -0.3453
     13 C          -7.4413   14.2990   -1.5402 C.3     1  UNL1        0.1593
     14 O          -8.5822   13.4742   -1.1657 O.3     1  UNL1       -0.2421
     15 P          -9.4272   12.5662   -2.3396 P.3     1  UNL1       -0.0004
     16 O         -10.8282   12.9293   -2.0113 O.co2   1  UNL1       -0.6646
     17 O          -8.9115   13.1269   -3.6145 O.co2   1  UNL1       -0.6646
     18 O          -9.0312   11.1403   -2.1298 O.co2   1  UNL1       -0.6646
     19 C          -6.7593   14.8922   -0.3133 C.3     1  UNL1        0.1329
     20 O          -7.7348   15.3835    0.6326 O.3     1  UNL1       -0.3845
     21 C          -6.0847   13.5874    0.1542 C.3     1  UNL1        0.1668
     22 N          -5.0133   13.7166    1.1675 N.ar    1  UNL1       -0.2855
     23 C          -5.1202   13.1883    2.4297 C.ar    1  UNL1        0.1004
     24 N          -4.0866   13.4086    3.1870 N.ar    1  UNL1       -0.2306
     25 C          -3.1844   14.1592    2.3673 C.ar    1  UNL1        0.1473
     26 C          -1.8509   14.6987    2.6172 C.ar    1  UNL1        0.1472
     27 N          -1.2587   14.6338    3.8256 N.pl3   1  UNL1       -0.3413
     28 N          -1.2398   15.3478    1.5914 N.ar    1  UNL1       -0.2188
     29 C          -1.9094   15.4656    0.4353 C.ar    1  UNL1        0.1205
     30 N          -3.1398   15.0303    0.0706 N.ar    1  UNL1       -0.2159
     31 C          -3.7470   14.3569    1.1110 C.ar    1  UNL1        0.1674
     32 H          -4.5562   14.4349   -2.7424 H       1  UNL1        0.0631
     33 H          -6.0528   14.8753   -3.6138 H       1  UNL1        0.0631
     34 H          -6.7255   12.4553   -2.4705 H       1  UNL1        0.0650
     35 H          -7.7236   15.0724   -2.2545 H       1  UNL1        0.0694
     36 H          -6.0294   15.6561   -0.5813 H       1  UNL1        0.0667
     37 H          -6.8309   12.8592    0.4719 H       1  UNL1        0.0866
     38 H          -5.9869   12.6377    2.7645 H       1  UNL1        0.1030
     39 H          -1.3764   15.9993   -0.3377 H       1  UNL1        0.1048
     40 H          -0.8869   13.7562    4.1595 H       1  UNL1        0.1438
     41 H          -1.1867   15.4630    4.3978 H       1  UNL1        0.1438
     42 H          -7.3777   15.3229    1.5217 H       1  UNL1        0.2101
@<TRIPOS>BOND
     1     1     2    1
     2     1     3    1
     3     1     4    1
     4     1     8    1
     5     5     6    1
     6     5     7    1
     7     5     8    1
     8     5     9    1
     9     9    10    1
    10    10    11    1
    11    11    12    1
    12    11    13    1
    13    12    21    1
    14    13    14    1
    15    13    19    1
    16    14    15    1
    17    15    16    1
    18    15    17    1
    19    15    18    1
    20    19    20    1
    21    19    21    1
    22    21    22    1
    23    22    23   ar
    24    22    31   ar
    25    23    24   ar
    26    24    25   ar
    27    25    26   ar
    28    25    31   ar
    29    26    27    1
    30    26    28   ar
    31    28    29   ar
    32    29    30   ar
    33    30    31   ar
    34    32    10    1
    35    33    10    1
    36    11    34    1
    37    13    35    1
    38    19    36    1
    39    21    37    1
    40    38    23    1
    41    39    29    1
    42    40    27    1
    43    41    27    1
    44    42    20    1
@<TRIPOS>SUBSTRUCTURE
     1 UNL1        1 TEMP              0 ****  ****    0 ROOT

########## Name:	7	-308.089  0.965052
@<TRIPOS>MOLECULE
af2_protein.mol27	
 42 44 1 0 0
SMALL
GASTEIGER


@<TRIPOS>ATOM
      1 P          -2.5530    8.2500   -3.8203 P.3     1  UNL1        0.0544
      2 O          -1.9701    8.1392   -5.1727 O.co2   1  UNL1       -0.6615
      3 O          -1.5617    8.5540   -2.7332 O.co2   1  UNL1       -0.6615
      4 O          -3.4802    7.1466   -3.4773 O.co2   1  UNL1       -0.6615
      5 P          -4.2057   10.6937   -2.7454 P.3     1  UNL1        0.2491
      6 O          -3.1205   10.9339   -1.7485 O.co2   1  UNL1       -0.6337
      7 O          -5.5394   10.2568   -2.2506 O.co2   1  UNL1       -0.6337
      8 O          -3.4960    9.5985   -3.8651 O.3     1  UNL1       -0.0930
      9 O          -4.3854   12.0765   -3.5855 O.3     1  UNL1       -0.2057
     10 C          -4.5306   13.3160   -2.9208 C.3     1  UNL1        0.1232
     11 C          -5.7138   13.1511   -2.0126 C.3     1  UNL1        0.1214
     12 O          -5.1732   12.9623   -0.7007 O.3     1  UNL1       -0.3453
     13 C          -6.6146   14.4146   -1.9468 C.3     1  UNL1        0.1593
     14 O          -8.0001   14.0106   -1.7488 O.3     1  UNL1       -0.2421
     15 P          -8.8148   13.0771   -2.9241 P.3     1  UNL1       -0.0004
     16 O         -10.0815   13.8399   -3.0507 O.co2   1  UNL1       -0.6646
     17 O          -7.9047   13.1651   -4.0944 O.co2   1  UNL1       -0.6646
     18 O          -8.9112   11.6939   -2.3660 O.co2   1  UNL1       -0.6646
     19 C          -6.0560   15.1055   -0.7086 C.3     1  UNL1        0.1329
     20 O          -7.0153   16.0361   -0.1598 O.3     1  UNL1       -0.3845
     21 C          -5.9098   13.8311    0.1463 C.3     1  UNL1        0.1668
     22 N          -5.0816   13.9393    1.3683 N.ar    1  UNL1       -0.2855
     23 C          -5.5982   13.7788    2.6297 C.ar    1  UNL1        0.1004
     24 N          -4.7254   13.9190    3.5830 N.ar    1  UNL1       -0.2306
     25 C          -3.4926   14.2026    2.9130 C.ar    1  UNL1        0.1473
     26 C          -2.1407   14.4448    3.4087 C.ar    1  UNL1        0.1472
     27 N          -1.8571   14.5355    4.7226 N.pl3   1  UNL1       -0.3413
     28 N          -1.1669   14.6536    2.4839 N.ar    1  UNL1       -0.2188
     29 C          -1.5178   14.6443    1.1895 C.ar    1  UNL1        0.1205
     30 N          -2.7189   14.4465    0.5940 N.ar    1  UNL1       -0.2159
     31 C          -3.6993   14.2175    1.5379 C.ar    1  UNL1        0.1674
     32 H          -3.6357   13.5441   -2.3418 H       1  UNL1        0.0631
     33 H          -4.7210   14.1088   -3.6441 H       1  UNL1        0.0631
     34 H          -6.3011   12.2821   -2.3092 H       1  UNL1        0.0650
     35 H          -6.5013   15.0342   -2.8363 H       1  UNL1        0.0694
     36 H          -5.0937   15.5786   -0.9042 H       1  UNL1        0.0667
     37 H          -6.8870   13.4076    0.3782 H       1  UNL1        0.0866
     38 H          -6.6387   13.5555    2.8142 H       1  UNL1        0.1030
     39 H          -0.7032   14.8257    0.5041 H       1  UNL1        0.1048
     40 H          -1.8392   13.7031    5.2942 H       1  UNL1        0.1438
     41 H          -1.6624   15.4362    5.1361 H       1  UNL1        0.1438
     42 H          -6.8838   16.1099    0.7883 H       1  UNL1        0.2101
@<TRIPOS>BOND
     1     1     2    1
     2     1     3    1
     3     1     4    1
     4     1     8    1
     5     5     6    1
     6     5     7    1
     7     5     8    1
     8     5     9    1
     9     9    10    1
    10    10    11    1
    11    11    12    1
    12    11    13    1
    13    12    21    1
    14    13    14    1
    15    13    19    1
    16    14    15    1
    17    15    16    1
    18    15    17    1
    19    15    18    1
    20    19    20    1
    21    19    21    1
    22    21    22    1
    23    22    23   ar
    24    22    31   ar
    25    23    24   ar
    26    24    25   ar
    27    25    26   ar
    28    25    31   ar
    29    26    27    1
    30    26    28   ar
    31    28    29   ar
    32    29    30   ar
    33    30    31   ar
    34    32    10    1
    35    33    10    1
    36    11    34    1
    37    13    35    1
    38    19    36    1
    39    21    37    1
    40    38    23    1
    41    39    29    1
    42    40    27    1
    43    41    27    1
    44    42    20    1
@<TRIPOS>SUBSTRUCTURE
     1 UNL1        1 TEMP              0 ****  ****    0 ROOT

########## Name:	8	-309.324  0.972121
@<TRIPOS>MOLECULE
af2_protein.mol28	
 42 44 1 0 0
SMALL
GASTEIGER


@<TRIPOS>ATOM
      1 P          -5.1971   13.6343    4.2011 P.3     1  UNL1        0.0544
      2 O          -5.8632   13.1942    5.4436 O.co2   1  UNL1       -0.6615
      3 O          -4.1121   12.7173    3.7126 O.co2   1  UNL1       -0.6615
      4 O          -4.7997   15.0615    4.2097 O.co2   1  UNL1       -0.6615
      5 P          -6.4148   13.4336    1.3139 P.3     1  UNL1        0.2491
      6 O          -5.3203   12.4798    0.9654 O.co2   1  UNL1       -0.6337
      7 O          -6.4326   14.7657    0.6509 O.co2   1  UNL1       -0.6337
      8 O          -6.3484   13.5212    3.0300 O.3     1  UNL1       -0.0930
      9 O          -7.8187   12.6721    0.9985 O.3     1  UNL1       -0.2057
     10 C          -8.0358   12.0359   -0.2455 C.3     1  UNL1        0.1232
     11 C          -7.8236   13.0975   -1.2846 C.3     1  UNL1        0.1214
     12 O          -6.5254   12.8495   -1.8341 O.3     1  UNL1       -0.3453
     13 C          -8.8315   13.0095   -2.4630 C.3     1  UNL1        0.1593
     14 O          -9.1062   14.3491   -2.9651 O.3     1  UNL1       -0.2421
     15 P          -9.8526   15.5196   -1.9704 P.3     1  UNL1       -0.0004
     16 O         -10.9092   16.0220   -2.8833 O.co2   1  UNL1       -0.6646
     17 O         -10.3399   14.7077   -0.8263 O.co2   1  UNL1       -0.6646
     18 O          -8.7790   16.4843   -1.5825 O.co2   1  UNL1       -0.6646
     19 C          -8.0304   12.1931   -3.4700 C.3     1  UNL1        0.1329
     20 O          -8.5416   12.3793   -4.8086 O.3     1  UNL1       -0.3845
     21 C          -6.6866   12.9133   -3.2429 C.3     1  UNL1        0.1668
     22 N          -5.4763   12.2515   -3.7797 N.ar    1  UNL1       -0.2855
     23 C          -4.7074   12.8063   -4.7721 C.ar    1  UNL1        0.1004
     24 N          -3.6894   12.0786   -5.1248 N.ar    1  UNL1       -0.2306
     25 C          -3.7663   10.9138   -4.2962 C.ar    1  UNL1        0.1473
     26 C          -2.9179    9.7305   -4.1875 C.ar    1  UNL1        0.1472
     27 N          -1.8778    9.5072   -5.0142 N.pl3   1  UNL1       -0.3413
     28 N          -3.2593    8.8036   -3.2540 N.ar    1  UNL1       -0.2188
     29 C          -4.3573    9.0290   -2.5177 C.ar    1  UNL1        0.1205
     30 N          -5.2332   10.0630   -2.5186 N.ar    1  UNL1       -0.2159
     31 C          -4.8704   11.0085   -3.4562 C.ar    1  UNL1        0.1674
     32 H          -7.3259   11.2205   -0.3845 H       1  UNL1        0.0631
     33 H          -9.0565   11.6574   -0.2994 H       1  UNL1        0.0631
     34 H          -7.8594   14.0869   -0.8285 H       1  UNL1        0.0650
     35 H          -9.7472   12.4963   -2.1695 H       1  UNL1        0.0694
     36 H          -7.9810   11.1397   -3.1945 H       1  UNL1        0.0667
     37 H          -6.7418   13.9488   -3.5788 H       1  UNL1        0.0866
     38 H          -4.9286   13.7636   -5.2206 H       1  UNL1        0.1030
     39 H          -4.5821    8.2530   -1.8010 H       1  UNL1        0.1048
     40 H          -1.0254   10.0386   -4.9086 H       1  UNL1        0.1438
     41 H          -1.9505    8.8085   -5.7398 H       1  UNL1        0.1438
     42 H          -7.8284   12.2698   -5.4419 H       1  UNL1        0.2101
@<TRIPOS>BOND
     1     1     2    1
     2     1     3    1
     3     1     4    1
     4     1     8    1
     5     5     6    1
     6     5     7    1
     7     5     8    1
     8     5     9    1
     9     9    10    1
    10    10    11    1
    11    11    12    1
    12    11    13    1
    13    12    21    1
    14    13    14    1
    15    13    19    1
    16    14    15    1
    17    15    16    1
    18    15    17    1
    19    15    18    1
    20    19    20    1
    21    19    21    1
    22    21    22    1
    23    22    23   ar
    24    22    31   ar
    25    23    24   ar
    26    24    25   ar
    27    25    26   ar
    28    25    31   ar
    29    26    27    1
    30    26    28   ar
    31    28    29   ar
    32    29    30   ar
    33    30    31   ar
    34    32    10    1
    35    33    10    1
    36    11    34    1
    37    13    35    1
    38    19    36    1
    39    21    37    1
    40    38    23    1
    41    39    29    1
    42    40    27    1
    43    41    27    1
    44    42    20    1
@<TRIPOS>SUBSTRUCTURE
     1 UNL1        1 TEMP              0 ****  ****    0 ROOT

########## Name:	9	-235.957  0.963969
@<TRIPOS>MOLECULE
af2_protein.mol29	
 42 44 1 0 0
SMALL
GASTEIGER


@<TRIPOS>ATOM
      1 P          -4.3284    8.6548   -3.6734 P.3     1  UNL1        0.0544
      2 O          -3.9397    8.7039   -5.0972 O.co2   1  UNL1       -0.6615
      3 O          -3.1924    8.8331   -2.7066 O.co2   1  UNL1       -0.6615
      4 O          -5.2140    7.5163   -3.3349 O.co2   1  UNL1       -0.6615
      5 P          -5.7841   10.9519   -2.1039 P.3     1  UNL1        0.2491
      6 O          -4.5683   11.0776   -1.2464 O.co2   1  UNL1       -0.6337
      7 O          -7.0422   10.4566   -1.4826 O.co2   1  UNL1       -0.6337
      8 O          -5.2505    9.9967   -3.4304 O.3     1  UNL1       -0.0930
      9 O          -6.0597   12.4227   -2.7453 O.3     1  UNL1       -0.2057
     10 C          -6.0951   13.5759   -1.9279 C.3     1  UNL1        0.1232
     11 C          -7.1434   13.3030   -0.8895 C.3     1  UNL1        0.1214
     12 O          -6.4293   12.9643    0.3040 O.3     1  UNL1       -0.3453
     13 C          -8.0096   14.5476   -0.5535 C.3     1  UNL1        0.1593
     14 O          -9.3597   14.1193   -0.2132 O.3     1  UNL1       -0.2421
     15 P         -10.3415   13.3265   -1.3639 P.3     1  UNL1       -0.0004
     16 O         -11.6032   14.0952   -1.2243 O.co2   1  UNL1       -0.6646
     17 O          -9.6008   13.5529   -2.6312 O.co2   1  UNL1       -0.6646
     18 O         -10.3781   11.8875   -0.9617 O.co2   1  UNL1       -0.6646
     19 C          -7.2760   15.0912    0.6666 C.3     1  UNL1        0.1329
     20 O          -8.1379   15.9488    1.4474 O.3     1  UNL1       -0.3845
     21 C          -7.0301   13.7264    1.3397 C.3     1  UNL1        0.1668
     22 N          -6.0395   13.6940    2.4392 N.ar    1  UNL1       -0.2855
     23 C          -6.3789   13.3862    3.7330 C.ar    1  UNL1        0.1004
     24 N          -5.3809   13.4170    4.5656 N.ar    1  UNL1       -0.2306
     25 C          -4.2488   13.7802    3.7682 C.ar    1  UNL1        0.1473
     26 C          -2.8384   13.9671    4.0960 C.ar    1  UNL1        0.1472
     27 N          -2.3746   13.9050    5.3594 N.pl3   1  UNL1       -0.3413
     28 N          -1.9990   14.2849    3.0754 N.ar    1  UNL1       -0.2188
     29 C          -2.5256   14.4253    1.8500 C.ar    1  UNL1        0.1205
     30 N          -3.8000   14.2947    1.4082 N.ar    1  UNL1       -0.2159
     31 C          -4.6435   13.9546    2.4462 C.ar    1  UNL1        0.1674
     32 H          -5.1258   13.7376   -1.4563 H       1  UNL1        0.0631
     33 H          -6.3731   14.4470   -2.5212 H       1  UNL1        0.0631
     34 H          -7.7777   12.4727   -1.2002 H       1  UNL1        0.0650
     35 H          -8.0121   15.2668   -1.3725 H       1  UNL1        0.0694
     36 H          -6.3439   15.5867    0.3954 H       1  UNL1        0.0667
     37 H          -7.9714   13.2759    1.6546 H       1  UNL1        0.0866
     38 H          -7.3868   13.1399    4.0330 H       1  UNL1        0.1030
     39 H          -1.8112   14.6876    1.0838 H       1  UNL1        0.1048
     40 H          -2.2890   13.0117    5.8228 H       1  UNL1        0.1438
     41 H          -2.1127   14.7520    5.8433 H       1  UNL1        0.1438
     42 H          -7.8755   15.9121    2.3701 H       1  UNL1        0.2101
@<TRIPOS>BOND
     1     1     2    1
     2     1     3    1
     3     1     4    1
     4     1     8    1
     5     5     6    1
     6     5     7    1
     7     5     8    1
     8     5     9    1
     9     9    10    1
    10    10    11    1
    11    11    12    1
    12    11    13    1
    13    12    21    1
    14    13    14    1
    15    13    19    1
    16    14    15    1
    17    15    16    1
    18    15    17    1
    19    15    18    1
    20    19    20    1
    21    19    21    1
    22    21    22    1
    23    22    23   ar
    24    22    31   ar
    25    23    24   ar
    26    24    25   ar
    27    25    26   ar
    28    25    31   ar
    29    26    27    1
    30    26    28   ar
    31    28    29   ar
    32    29    30   ar
    33    30    31   ar
    34    32    10    1
    35    33    10    1
    36    11    34    1
    37    13    35    1
    38    19    36    1
    39    21    37    1
    40    38    23    1
    41    39    29    1
    42    40    27    1
    43    41    27    1
    44    42    20    1
@<TRIPOS>SUBSTRUCTURE
     1 UNL1        1 TEMP              0 ****  ****    0 ROOT

########## Name:	10	-263.931  0.966897
@<TRIPOS>MOLECULE
af2_protein.mol210	
 42 44 1 0 0
SMALL
GASTEIGER


@<TRIPOS>ATOM
      1 P          -0.9482    9.9871   -4.2087 P.3     1  UNL1        0.0544
      2 O          -0.1966    8.9882   -3.4223 O.co2   1  UNL1       -0.6615
      3 O          -1.7017    9.4248   -5.3805 O.co2   1  UNL1       -0.6615
      4 O          -0.1631   11.1983   -4.5424 O.co2   1  UNL1       -0.6615
      5 P          -3.6544   11.3233   -3.3429 P.3     1  UNL1        0.2491
      6 O          -4.3065   10.6574   -4.5092 O.co2   1  UNL1       -0.6337
      7 O          -3.5395   12.8070   -3.3461 O.co2   1  UNL1       -0.6337
      8 O          -2.1415   10.5174   -3.2064 O.3     1  UNL1       -0.0930
      9 O          -4.4818   10.8645   -2.0180 O.3     1  UNL1       -0.2057
     10 C          -5.8918   10.9611   -1.9731 C.3     1  UNL1        0.1232
     11 C          -6.2073   12.3999   -2.2595 C.3     1  UNL1        0.1214
     12 O          -6.6450   12.4381   -3.6219 O.3     1  UNL1       -0.3453
     13 C          -7.3767   12.9521   -1.3993 C.3     1  UNL1        0.1593
     14 O          -7.1521   14.3657   -1.1288 O.3     1  UNL1       -0.2421
     15 P          -5.7974   14.8782   -0.2240 P.3     1  UNL1       -0.0004
     16 O          -6.4448   15.8023    0.7401 O.co2   1  UNL1       -0.6646
     17 O          -5.2979   13.6064    0.3581 O.co2   1  UNL1       -0.6646
     18 O          -4.8443   15.4821   -1.2041 O.co2   1  UNL1       -0.6646
     19 C          -8.5542   12.7486   -2.3450 C.3     1  UNL1        0.1329
     20 O          -9.6597   13.6065   -1.9849 O.3     1  UNL1       -0.3845
     21 C          -7.8304   13.2187   -3.6222 C.3     1  UNL1        0.1668
     22 N          -8.4794   12.8973   -4.9132 N.ar    1  UNL1       -0.2855
     23 C          -8.9472   13.8640   -5.7678 C.ar    1  UNL1        0.1004
     24 N          -9.4964   13.3962   -6.8494 N.ar    1  UNL1       -0.2306
     25 C          -9.3964   11.9735   -6.7259 C.ar    1  UNL1        0.1473
     26 C          -9.8065   10.8821   -7.6048 C.ar    1  UNL1        0.1472
     27 N         -10.4984   11.0897   -8.7420 N.pl3   1  UNL1       -0.3413
     28 N          -9.5275    9.6161   -7.1968 N.ar    1  UNL1       -0.2188
     29 C          -8.9184    9.4581   -6.0125 C.ar    1  UNL1        0.1205
     30 N          -8.4962   10.3667   -5.1000 N.ar    1  UNL1       -0.2159
     31 C          -8.7666   11.6502   -5.5290 C.ar    1  UNL1        0.1674
     32 H          -6.3413   10.3157   -2.7278 H       1  UNL1        0.0631
     33 H          -6.2545   10.6879   -0.9823 H       1  UNL1        0.0631
     34 H          -5.3177   13.0162   -2.1298 H       1  UNL1        0.0650
     35 H          -7.5000   12.3827   -0.4781 H       1  UNL1        0.0694
     36 H          -8.8525   11.7021   -2.4063 H       1  UNL1        0.0667
     37 H          -7.5934   14.2809   -3.5630 H       1  UNL1        0.0866
     38 H          -8.8660   14.9208   -5.5601 H       1  UNL1        0.1030
     39 H          -8.7325    8.4300   -5.7389 H       1  UNL1        0.1048
     40 H         -10.0339   11.4716   -9.5534 H       1  UNL1        0.1438
     41 H         -11.4819   10.8635   -8.7831 H       1  UNL1        0.1438
     42 H         -10.1684   13.8203   -2.7705 H       1  UNL1        0.2101
@<TRIPOS>BOND
     1     1     2    1
     2     1     3    1
     3     1     4    1
     4     1     8    1
     5     5     6    1
     6     5     7    1
     7     5     8    1
     8     5     9    1
     9     9    10    1
    10    10    11    1
    11    11    12    1
    12    11    13    1
    13    12    21    1
    14    13    14    1
    15    13    19    1
    16    14    15    1
    17    15    16    1
    18    15    17    1
    19    15    18    1
    20    19    20    1
    21    19    21    1
    22    21    22    1
    23    22    23   ar
    24    22    31   ar
    25    23    24   ar
    26    24    25   ar
    27    25    26   ar
    28    25    31   ar
    29    26    27    1
    30    26    28   ar
    31    28    29   ar
    32    29    30   ar
    33    30    31   ar
    34    32    10    1
    35    33    10    1
    36    11    34    1
    37    13    35    1
    38    19    36    1
    39    21    37    1
    40    38    23    1
    41    39    29    1
    42    40    27    1
    43    41    27    1
    44    42    20    1
@<TRIPOS>SUBSTRUCTURE
     1 UNL1        1 TEMP              0 ****  ****    0 ROOT

########## Name:	11	-250.479  0.965954
@<TRIPOS>MOLECULE
af2_protein.mol211	
 42 44 1 0 0
SMALL
GASTEIGER


@<TRIPOS>ATOM
      1 P          -3.1616    8.1000   -3.8102 P.3     1  UNL1        0.0544
      2 O          -2.1311    7.8693   -4.8425 O.co2   1  UNL1       -0.6615
      3 O          -2.6349    8.1816   -2.4056 O.co2   1  UNL1       -0.6615
      4 O          -4.3469    7.2212   -3.9425 O.co2   1  UNL1       -0.6615
      5 P          -4.5859   10.8397   -3.2407 P.3     1  UNL1        0.2491
      6 O          -3.9520   10.8389   -1.8888 O.co2   1  UNL1       -0.6337
      7 O          -6.0645   10.6989   -3.3309 O.co2   1  UNL1       -0.6337
      8 O          -3.7262    9.6199   -4.0950 O.3     1  UNL1       -0.0930
      9 O          -4.1466   12.2306   -3.9638 O.3     1  UNL1       -0.2057
     10 C          -4.2925   13.4710   -3.3008 C.3     1  UNL1        0.1232
     11 C          -5.7436   13.5625   -2.9298 C.3     1  UNL1        0.1214
     12 O          -5.8073   13.2591   -1.5323 O.3     1  UNL1       -0.3453
     13 C          -6.3302   14.9900   -3.1040 C.3     1  UNL1        0.1593
     14 O          -7.7330   14.8929   -3.4844 O.3     1  UNL1       -0.2421
     15 P          -8.1906   14.1588   -4.9569 P.3     1  UNL1       -0.0004
     16 O          -9.1298   15.1764   -5.4907 O.co2   1  UNL1       -0.6646
     17 O          -6.8978   14.0516   -5.6799 O.co2   1  UNL1       -0.6646
     18 O          -8.7679   12.8276   -4.5987 O.co2   1  UNL1       -0.6646
     19 C          -6.1754   15.5419   -1.6920 C.3     1  UNL1        0.1329
     20 O          -7.0690   16.6559   -1.4724 O.3     1  UNL1       -0.3845
     21 C          -6.6291   14.2642   -0.9588 C.3     1  UNL1        0.1668
     22 N          -6.3404   14.1892    0.4911 N.ar    1  UNL1       -0.2855
     23 C          -7.3293   14.1410    1.4416 C.ar    1  UNL1        0.1004
     24 N          -6.8892   14.0883    2.6639 N.ar    1  UNL1       -0.2306
     25 C          -5.4630   14.1015    2.5412 C.ar    1  UNL1        0.1473
     26 C          -4.3933   14.0464    3.5334 C.ar    1  UNL1        0.1472
     27 N          -4.6336   14.0713    4.8588 N.pl3   1  UNL1       -0.3413
     28 N          -3.1153   14.0427    3.0711 N.ar    1  UNL1       -0.2188
     29 C          -2.9271   14.1118    1.7451 C.ar    1  UNL1        0.1205
     30 N          -3.8134   14.1781    0.7222 N.ar    1  UNL1       -0.2159
     31 C          -5.1088   14.1634    1.1978 C.ar    1  UNL1        0.1674
     32 H          -3.6690   13.5001   -2.4072 H       1  UNL1        0.0631
     33 H          -4.0248   14.2877   -3.9711 H       1  UNL1        0.0631
     34 H          -6.3272   12.8407   -3.5012 H       1  UNL1        0.0650
     35 H          -5.7587   15.5725   -3.8265 H       1  UNL1        0.0694
     36 H          -5.1405   15.7975   -1.4648 H       1  UNL1        0.0667
     37 H          -7.6819   14.0602   -1.1540 H       1  UNL1        0.0866
     38 H          -8.3810   14.1462    1.1958 H       1  UNL1        0.1030
     39 H          -1.8910   14.1152    1.4401 H       1  UNL1        0.1048
     40 H          -5.0049   13.2532    5.3204 H       1  UNL1        0.1438
     41 H          -4.4425   14.9081    5.3910 H       1  UNL1        0.1438
     42 H          -7.3064   16.6978   -0.5432 H       1  UNL1        0.2101
@<TRIPOS>BOND
     1     1     2    1
     2     1     3    1
     3     1     4    1
     4     1     8    1
     5     5     6    1
     6     5     7    1
     7     5     8    1
     8     5     9    1
     9     9    10    1
    10    10    11    1
    11    11    12    1
    12    11    13    1
    13    12    21    1
    14    13    14    1
    15    13    19    1
    16    14    15    1
    17    15    16    1
    18    15    17    1
    19    15    18    1
    20    19    20    1
    21    19    21    1
    22    21    22    1
    23    22    23   ar
    24    22    31   ar
    25    23    24   ar
    26    24    25   ar
    27    25    26   ar
    28    25    31   ar
    29    26    27    1
    30    26    28   ar
    31    28    29   ar
    32    29    30   ar
    33    30    31   ar
    34    32    10    1
    35    33    10    1
    36    11    34    1
    37    13    35    1
    38    19    36    1
    39    21    37    1
    40    38    23    1
    41    39    29    1
    42    40    27    1
    43    41    27    1
    44    42    20    1
@<TRIPOS>SUBSTRUCTURE
     1 UNL1        1 TEMP              0 ****  ****    0 ROOT

########## Name:	12	-166.822  0.964846
@<TRIPOS>MOLECULE
af2_protein.mol212	
 42 44 1 0 0
SMALL
GASTEIGER


@<TRIPOS>ATOM
      1 P          -4.7010   12.2098    4.2120 P.3     1  UNL1        0.0544
      2 O          -3.5844   12.8220    4.9599 O.co2   1  UNL1       -0.6615
      3 O          -5.9239   13.0742    4.0919 O.co2   1  UNL1       -0.6615
      4 O          -5.0035   10.8188    4.6227 O.co2   1  UNL1       -0.6615
      5 P          -4.8432   11.8910    1.0916 P.3     1  UNL1        0.2491
      6 O          -6.0160   12.8149    1.0939 O.co2   1  UNL1       -0.6337
      7 O          -5.0613   10.4687    0.7121 O.co2   1  UNL1       -0.6337
      8 O          -4.1661   12.0874    2.6600 O.3     1  UNL1       -0.0930
      9 O          -3.7382   12.5383    0.0864 O.3     1  UNL1       -0.2057
     10 C          -4.0976   12.9542   -1.2163 C.3     1  UNL1        0.1232
     11 C          -4.6943   11.7457   -1.8760 C.3     1  UNL1        0.1214
     12 O          -6.1110   11.9485   -1.8500 O.3     1  UNL1       -0.3453
     13 C          -4.2911   11.6027   -3.3691 C.3     1  UNL1        0.1593
     14 O          -4.2082   10.1899   -3.7142 O.3     1  UNL1       -0.2421
     15 P          -3.0654    9.1709   -2.9577 P.3     1  UNL1       -0.0004
     16 O          -2.4828    8.4873   -4.1391 O.co2   1  UNL1       -0.6646
     17 O          -2.1660   10.1401   -2.2815 O.co2   1  UNL1       -0.6646
     18 O          -3.8335    8.3228   -1.9961 O.co2   1  UNL1       -0.6646
     19 C          -5.4754   12.2727   -4.0552 C.3     1  UNL1        0.1329
     20 O          -5.5792   11.8516   -5.4335 O.3     1  UNL1       -0.3845
     21 C          -6.5654   11.6495   -3.1610 C.3     1  UNL1        0.1668
     22 N          -7.9127   12.2590   -3.2289 N.ar    1  UNL1       -0.2855
     23 C          -9.0109   11.5784   -3.6918 C.ar    1  UNL1        0.1004
     24 N         -10.1081   12.2758   -3.6890 N.ar    1  UNL1       -0.2306
     25 C          -9.7275   13.5566   -3.1754 C.ar    1  UNL1        0.1473
     26 C         -10.4910   14.7724   -2.9093 C.ar    1  UNL1        0.1472
     27 N         -11.7922   14.8959   -3.2361 N.pl3   1  UNL1       -0.3413
     28 N          -9.8178   15.8261   -2.3767 N.ar    1  UNL1       -0.2188
     29 C          -8.5028   15.6835   -2.1548 C.ar    1  UNL1        0.1205
     30 N          -7.6738   14.6316   -2.3612 N.ar    1  UNL1       -0.2159
     31 C          -8.3674   13.5597   -2.8852 C.ar    1  UNL1        0.1674
     32 H          -4.8284   13.7617   -1.1696 H       1  UNL1        0.0631
     33 H          -3.2128   13.2809   -1.7626 H       1  UNL1        0.0631
     34 H          -4.4304   10.8435   -1.3242 H       1  UNL1        0.0650
     35 H          -3.3575   12.1228   -3.5835 H       1  UNL1        0.0694
     36 H          -5.4412   13.3581   -3.9612 H       1  UNL1        0.0667
     37 H          -6.6209   10.5717   -3.3142 H       1  UNL1        0.0866
     38 H          -8.9675   10.5532   -4.0288 H       1  UNL1        0.1030
     39 H          -8.0220   16.5573   -1.7405 H       1  UNL1        0.1048
     40 H         -12.4972   14.4208   -2.6909 H       1  UNL1        0.1438
     41 H         -12.0626   15.4636   -4.0264 H       1  UNL1        0.1438
     42 H          -6.4982   11.8825   -5.7095 H       1  UNL1        0.2101
@<TRIPOS>BOND
     1     1     2    1
     2     1     3    1
     3     1     4    1
     4     1     8    1
     5     5     6    1
     6     5     7    1
     7     5     8    1
     8     5     9    1
     9     9    10    1
    10    10    11    1
    11    11    12    1
    12    11    13    1
    13    12    21    1
    14    13    14    1
    15    13    19    1
    16    14    15    1
    17    15    16    1
    18    15    17    1
    19    15    18    1
    20    19    20    1
    21    19    21    1
    22    21    22    1
    23    22    23   ar
    24    22    31   ar
    25    23    24   ar
    26    24    25   ar
    27    25    26   ar
    28    25    31   ar
    29    26    27    1
    30    26    28   ar
    31    28    29   ar
    32    29    30   ar
    33    30    31   ar
    34    32    10    1
    35    33    10    1
    36    11    34    1
    37    13    35    1
    38    19    36    1
    39    21    37    1
    40    38    23    1
    41    39    29    1
    42    40    27    1
    43    41    27    1
    44    42    20    1
@<TRIPOS>SUBSTRUCTURE
     1 UNL1        1 TEMP              0 ****  ****    0 ROOT

########## Name:	13	-140.266  0.967242
@<TRIPOS>MOLECULE
af2_protein.mol213	
 42 44 1 0 0
SMALL
GASTEIGER


@<TRIPOS>ATOM
      1 P          -3.2697    8.5048   -4.1187 P.3     1  UNL1        0.0544
      2 O          -2.6537    8.5605   -5.4597 O.co2   1  UNL1       -0.6615
      3 O          -2.3341    8.8163   -2.9853 O.co2   1  UNL1       -0.6615
      4 O          -4.0885    7.2920   -3.8874 O.co2   1  UNL1       -0.6615
      5 P          -5.1777   10.6807   -2.9005 P.3     1  UNL1        0.2491
      6 O          -4.1406   10.9453   -1.8596 O.co2   1  UNL1       -0.6337
      7 O          -6.4702   10.0770   -2.4768 O.co2   1  UNL1       -0.6337
      8 O          -4.3416    9.7537   -4.0831 O.3     1  UNL1       -0.0930
      9 O          -5.4788   12.1022   -3.6347 O.3     1  UNL1       -0.2057
     10 C          -5.7593   13.2642   -2.8794 C.3     1  UNL1        0.1232
     11 C          -6.9368   12.9119   -2.0185 C.3     1  UNL1        0.1214
     12 O          -6.4046   12.6723   -0.7114 O.3     1  UNL1       -0.3453
     13 C          -7.9602   14.0717   -1.8782 C.3     1  UNL1        0.1593
     14 O          -9.3019   13.5193   -1.7491 O.3     1  UNL1       -0.2421
     15 P          -9.9975   12.6077   -3.0148 P.3     1  UNL1       -0.0004
     16 O         -11.3314   13.2505   -3.1150 O.co2   1  UNL1       -0.6646
     17 O          -9.0791   12.8782   -4.1501 O.co2   1  UNL1       -0.6646
     18 O          -9.9657   11.1815   -2.5690 O.co2   1  UNL1       -0.6646
     19 C          -7.4964   14.7123   -0.5756 C.3     1  UNL1        0.1329
     20 O          -8.5539   15.4974    0.0186 O.3     1  UNL1       -0.3845
     21 C          -7.2398   13.3940    0.1809 C.3     1  UNL1        0.1668
     22 N          -6.4494   13.4843    1.4292 N.ar    1  UNL1       -0.2855
     23 C          -6.9709   13.1733    2.6601 C.ar    1  UNL1        0.1004
     24 N          -6.1343   13.3214    3.6442 N.ar    1  UNL1       -0.2306
     25 C          -4.9236   13.7772    3.0312 C.ar    1  UNL1        0.1473
     26 C          -3.6121   14.1102    3.5798 C.ar    1  UNL1        0.1472
     27 N          -3.3635   14.1225    4.9038 N.pl3   1  UNL1       -0.3413
     28 N          -2.6469   14.4868    2.7003 N.ar    1  UNL1       -0.2188
     29 C          -2.9710   14.5471    1.4003 C.ar    1  UNL1        0.1205
     30 N          -4.1351   14.2810    0.7595 N.ar    1  UNL1       -0.2159
     31 C          -5.1052   13.8821    1.6564 C.ar    1  UNL1        0.1674
     32 H          -4.9025   13.5316   -2.2609 H       1  UNL1        0.0631
     33 H          -6.0143   14.0900   -3.5435 H       1  UNL1        0.0631
     34 H          -7.4289   12.0161   -2.3974 H       1  UNL1        0.0650
     35 H          -7.8927   14.7687   -2.7134 H       1  UNL1        0.0694
     36 H          -6.5827   15.2916   -0.7082 H       1  UNL1        0.0667
     37 H          -8.1741   12.8595    0.3531 H       1  UNL1        0.0866
     38 H          -7.9871   12.8351    2.7989 H       1  UNL1        0.1030
     39 H          -2.1659   14.8618    0.7529 H       1  UNL1        0.1048
     40 H          -3.2733   13.2526    5.4090 H       1  UNL1        0.1438
     41 H          -3.2673   15.0018    5.3914 H       1  UNL1        0.1438
     42 H          -8.4480   15.5075    0.9727 H       1  UNL1        0.2101
@<TRIPOS>BOND
     1     1     2    1
     2     1     3    1
     3     1     4    1
     4     1     8    1
     5     5     6    1
     6     5     7    1
     7     5     8    1
     8     5     9    1
     9     9    10    1
    10    10    11    1
    11    11    12    1
    12    11    13    1
    13    12    21    1
    14    13    14    1
    15    13    19    1
    16    14    15    1
    17    15    16    1
    18    15    17    1
    19    15    18    1
    20    19    20    1
    21    19    21    1
    22    21    22    1
    23    22    23   ar
    24    22    31   ar
    25    23    24   ar
    26    24    25   ar
    27    25    26   ar
    28    25    31   ar
    29    26    27    1
    30    26    28   ar
    31    28    29   ar
    32    29    30   ar
    33    30    31   ar
    34    32    10    1
    35    33    10    1
    36    11    34    1
    37    13    35    1
    38    19    36    1
    39    21    37    1
    40    38    23    1
    41    39    29    1
    42    40    27    1
    43    41    27    1
    44    42    20    1
@<TRIPOS>SUBSTRUCTURE
     1 UNL1        1 TEMP              0 ****  ****    0 ROOT

########## Name:	14	-4.24786  0.96279
@<TRIPOS>MOLECULE
af2_protein.mol214	
 42 44 1 0 0
SMALL
GASTEIGER


@<TRIPOS>ATOM
      1 P          -7.6347   10.5864    4.0119 P.3     1  UNL1        0.0544
      2 O          -8.7095   11.0273    4.9236 O.co2   1  UNL1       -0.6615
      3 O          -8.0766    9.6384    2.9335 O.co2   1  UNL1       -0.6615
      4 O          -6.4023   10.1496    4.7085 O.co2   1  UNL1       -0.6615
      5 P          -6.3696   12.3176    1.7181 P.3     1  UNL1        0.2491
      6 O          -6.9159   11.3358    0.7348 O.co2   1  UNL1       -0.6337
      7 O          -4.8934   12.4147    1.8781 O.co2   1  UNL1       -0.6337
      8 O          -7.1951   11.9356    3.1774 O.3     1  UNL1       -0.0930
      9 O          -6.9481   13.7787    1.2928 O.3     1  UNL1       -0.2057
     10 C          -6.8467   14.2396   -0.0401 C.3     1  UNL1        0.1232
     11 C          -5.3850   14.1880   -0.3752 C.3     1  UNL1        0.1214
     12 O          -5.2131   13.0207   -1.1857 O.3     1  UNL1       -0.3453
     13 C          -4.9102   15.3968   -1.2271 C.3     1  UNL1        0.1593
     14 O          -3.5306   15.7166   -0.8856 O.3     1  UNL1       -0.2421
     15 P          -3.1167   16.2312    0.6894 P.3     1  UNL1       -0.0004
     16 O          -2.2852   17.4208    0.3797 O.co2   1  UNL1       -0.6646
     17 O          -4.4419   16.5262    1.2915 O.co2   1  UNL1       -0.6646
     18 O          -2.4278   15.0751    1.3394 O.co2   1  UNL1       -0.6646
     19 C          -5.0138   14.8196   -2.6336 C.3     1  UNL1        0.1329
     20 O          -4.1871   15.5610   -3.5580 O.3     1  UNL1       -0.3845
     21 C          -4.4281   13.4350   -2.2933 C.3     1  UNL1        0.1668
     22 N          -4.6195   12.3647   -3.2978 N.ar    1  UNL1       -0.2855
     23 C          -3.5720   11.7734   -3.9587 C.ar    1  UNL1        0.1004
     24 N          -3.9299   10.8605   -4.8123 N.ar    1  UNL1       -0.2306
     25 C          -5.3585   10.8209   -4.7298 C.ar    1  UNL1        0.1473
     26 C          -6.3576   10.0045   -5.4133 C.ar    1  UNL1        0.1472
     27 N          -6.0369    9.1408   -6.3963 N.pl3   1  UNL1       -0.3413
     28 N          -7.6588   10.1981   -5.0721 N.ar    1  UNL1       -0.2188
     29 C          -7.9340   11.1353   -4.1530 C.ar    1  UNL1        0.1205
     30 N          -7.1202   11.9637   -3.4546 N.ar    1  UNL1       -0.2159
     31 C          -5.7996   11.7491   -3.7930 C.ar    1  UNL1        0.1674
     32 H          -7.4135   13.5931   -0.7101 H       1  UNL1        0.0631
     33 H          -7.2115   15.2643   -0.1107 H       1  UNL1        0.0631
     34 H          -4.7900   14.1087    0.5346 H       1  UNL1        0.0650
     35 H          -5.5646   16.2589   -1.0989 H       1  UNL1        0.0694
     36 H          -6.0476   14.7536   -2.9727 H       1  UNL1        0.0667
     37 H          -3.3780   13.5182   -2.0129 H       1  UNL1        0.0866
     38 H          -2.5406   12.0429   -3.7848 H       1  UNL1        0.1030
     39 H          -8.9849   11.2493   -3.9316 H       1  UNL1        0.1048
     40 H          -5.5819    8.2673   -6.1728 H       1  UNL1        0.1438
     41 H          -6.2515    9.3669   -7.3570 H       1  UNL1        0.1438
     42 H          -3.8953   14.9796   -4.2641 H       1  UNL1        0.2101
@<TRIPOS>BOND
     1     1     2    1
     2     1     3    1
     3     1     4    1
     4     1     8    1
     5     5     6    1
     6     5     7    1
     7     5     8    1
     8     5     9    1
     9     9    10    1
    10    10    11    1
    11    11    12    1
    12    11    13    1
    13    12    21    1
    14    13    14    1
    15    13    19    1
    16    14    15    1
    17    15    16    1
    18    15    17    1
    19    15    18    1
    20    19    20    1
    21    19    21    1
    22    21    22    1
    23    22    23   ar
    24    22    31   ar
    25    23    24   ar
    26    24    25   ar
    27    25    26   ar
    28    25    31   ar
    29    26    27    1
    30    26    28   ar
    31    28    29   ar
    32    29    30   ar
    33    30    31   ar
    34    32    10    1
    35    33    10    1
    36    11    34    1
    37    13    35    1
    38    19    36    1
    39    21    37    1
    40    38    23    1
    41    39    29    1
    42    40    27    1
    43    41    27    1
    44    42    20    1
@<TRIPOS>SUBSTRUCTURE
     1 UNL1        1 TEMP              0 ****  ****    0 ROOT

########## Name:	15	-234.729  0.970829
@<TRIPOS>MOLECULE
af2_protein.mol215	
 42 44 1 0 0
SMALL
GASTEIGER


@<TRIPOS>ATOM
      1 P          -3.3405    7.9944   -3.7880 P.3     1  UNL1        0.0544
      2 O          -2.3435    7.7415   -4.8477 O.co2   1  UNL1       -0.6615
      3 O          -2.7605    8.2014   -2.4177 O.co2   1  UNL1       -0.6615
      4 O          -4.4831    7.0514   -3.8054 O.co2   1  UNL1       -0.6615
      5 P          -4.8802   10.6947   -3.3447 P.3     1  UNL1        0.2491
      6 O          -4.1911   10.8212   -2.0263 O.co2   1  UNL1       -0.6337
      7 O          -6.3520   10.4756   -3.3578 O.co2   1  UNL1       -0.6337
      8 O          -3.9948    9.4607   -4.1510 O.3     1  UNL1       -0.0930
      9 O          -4.5445   12.0504   -4.1812 O.3     1  UNL1       -0.2057
     10 C          -4.7267   13.3262   -3.5995 C.3     1  UNL1        0.1232
     11 C          -6.1638   13.3728   -3.1702 C.3     1  UNL1        0.1214
     12 O          -6.1531   13.1669   -1.7536 O.3     1  UNL1       -0.3453
     13 C          -6.8306   14.7539   -3.4155 C.3     1  UNL1        0.1593
     14 O          -8.2412   14.5615   -3.7243 O.3     1  UNL1       -0.2421
     15 P          -8.7213   13.7029   -5.1204 P.3     1  UNL1       -0.0004
     16 O          -9.7336   14.6328   -5.6799 O.co2   1  UNL1       -0.6646
     17 O          -7.4560   13.6078   -5.8922 O.co2   1  UNL1       -0.6646
     18 O          -9.2131   12.3739   -4.6453 O.co2   1  UNL1       -0.6646
     19 C          -6.6457   15.4118   -2.0535 C.3     1  UNL1        0.1329
     20 O          -7.5860   16.4936   -1.8710 O.3     1  UNL1       -0.3845
     21 C          -7.0014   14.1689   -1.2141 C.3     1  UNL1        0.1668
     22 N          -6.6487   14.2115    0.2230 N.ar    1  UNL1       -0.2855
     23 C          -7.5931   14.1827    1.2185 C.ar    1  UNL1        0.1004
     24 N          -7.1001   14.2387    2.4202 N.ar    1  UNL1       -0.2306
     25 C          -5.6829   14.3129    2.2322 C.ar    1  UNL1        0.1473
     26 C          -4.5711   14.3810    3.1763 C.ar    1  UNL1        0.1472
     27 N          -4.7567   14.4883    4.5064 N.pl3   1  UNL1       -0.3413
     28 N          -3.3151   14.4070    2.6578 N.ar    1  UNL1       -0.2188
     29 C          -3.1864   14.3906    1.3230 C.ar    1  UNL1        0.1205
     30 N          -4.1171   14.3405    0.3392 N.ar    1  UNL1       -0.2159
     31 C          -5.3889   14.2963    0.8731 C.ar    1  UNL1        0.1674
     32 H          -4.0687   13.4493   -2.7392 H       1  UNL1        0.0631
     33 H          -4.5302   14.1052   -4.3360 H       1  UNL1        0.0631
     34 H          -6.7326   12.5845   -3.6633 H       1  UNL1        0.0650
     35 H          -6.3209   15.3107   -4.2017 H       1  UNL1        0.0694
     36 H          -5.6169   15.7333   -1.8917 H       1  UNL1        0.0667
     37 H          -8.0494   13.9003   -1.3467 H       1  UNL1        0.0866
     38 H          -8.6530   14.1190    1.0208 H       1  UNL1        0.1030
     39 H          -2.1657   14.4229    0.9718 H       1  UNL1        0.1048
     40 H          -5.0654   13.6881    5.0396 H       1  UNL1        0.1438
     41 H          -4.5873   15.3693    4.9703 H       1  UNL1        0.1438
     42 H          -7.7862   16.5898   -0.9370 H       1  UNL1        0.2101
@<TRIPOS>BOND
     1     1     2    1
     2     1     3    1
     3     1     4    1
     4     1     8    1
     5     5     6    1
     6     5     7    1
     7     5     8    1
     8     5     9    1
     9     9    10    1
    10    10    11    1
    11    11    12    1
    12    11    13    1
    13    12    21    1
    14    13    14    1
    15    13    19    1
    16    14    15    1
    17    15    16    1
    18    15    17    1
    19    15    18    1
    20    19    20    1
    21    19    21    1
    22    21    22    1
    23    22    23   ar
    24    22    31   ar
    25    23    24   ar
    26    24    25   ar
    27    25    26   ar
    28    25    31   ar
    29    26    27    1
    30    26    28   ar
    31    28    29   ar
    32    29    30   ar
    33    30    31   ar
    34    32    10    1
    35    33    10    1
    36    11    34    1
    37    13    35    1
    38    19    36    1
    39    21    37    1
    40    38    23    1
    41    39    29    1
    42    40    27    1
    43    41    27    1
    44    42    20    1
@<TRIPOS>SUBSTRUCTURE
     1 UNL1        1 TEMP              0 ****  ****    0 ROOT

########## Name:	16	-150.217  0.962757
@<TRIPOS>MOLECULE
af2_protein.mol216	
 42 44 1 0 0
SMALL
GASTEIGER


@<TRIPOS>ATOM
      1 P          -1.5790   13.1151   -6.0050 P.3     1  UNL1        0.0544
      2 O          -0.6661   12.1716   -6.6815 O.co2   1  UNL1       -0.6615
      3 O          -2.9573   13.1884   -6.5980 O.co2   1  UNL1       -0.6615
      4 O          -0.9795   14.4451   -5.7470 O.co2   1  UNL1       -0.6615
      5 P          -2.9911   12.6184   -3.2449 P.3     1  UNL1        0.2491
      6 O          -4.3019   12.6489   -3.9590 O.co2   1  UNL1       -0.6337
      7 O          -2.6808   13.7121   -2.2848 O.co2   1  UNL1       -0.6337
      8 O          -1.8392   12.4701   -4.5130 O.3     1  UNL1       -0.0930
      9 O          -2.9182   11.1945   -2.4591 O.3     1  UNL1       -0.2057
     10 C          -3.9867   10.7617   -1.6404 C.3     1  UNL1        0.1232
     11 C          -4.1913   11.8542   -0.6323 C.3     1  UNL1        0.1214
     12 O          -5.3454   12.5779   -1.0724 O.3     1  UNL1       -0.3453
     13 C          -4.5145   11.3208    0.7901 C.3     1  UNL1        0.1593
     14 O          -3.9645   12.2321    1.7845 O.3     1  UNL1       -0.2421
     15 P          -2.2801   12.4906    1.8965 P.3     1  UNL1       -0.0004
     16 O          -2.0746   12.3322    3.3577 O.co2   1  UNL1       -0.6646
     17 O          -1.7288   11.3953    1.0587 O.co2   1  UNL1       -0.6646
     18 O          -2.0260   13.8463    1.3209 O.co2   1  UNL1       -0.6646
     19 C          -6.0377   11.3664    0.7783 C.3     1  UNL1        0.1329
     20 O          -6.5641   11.3810    2.1238 O.3     1  UNL1       -0.3845
     21 C          -6.1619   12.7340    0.0780 C.3     1  UNL1        0.1668
     22 N          -7.4933   13.0872   -0.4639 N.ar    1  UNL1       -0.2855
     23 C          -8.2284   14.1455    0.0090 C.ar    1  UNL1        0.1004
     24 N          -9.3779   14.2986   -0.5788 N.ar    1  UNL1       -0.2306
     25 C          -9.4380   13.2460   -1.5472 C.ar    1  UNL1        0.1473
     26 C         -10.4499   12.8778   -2.5331 C.ar    1  UNL1        0.1472
     27 N         -11.6440   13.4968   -2.6105 N.pl3   1  UNL1       -0.3413
     28 N         -10.1754   11.8202   -3.3415 N.ar    1  UNL1       -0.2188
     29 C          -9.0109   11.1793   -3.1632 C.ar    1  UNL1        0.1205
     30 N          -7.9967   11.4011   -2.2922 N.ar    1  UNL1       -0.2159
     31 C          -8.2744   12.4869   -1.4869 C.ar    1  UNL1        0.1674
     32 H          -4.8887   10.6199   -2.2359 H       1  UNL1        0.0631
     33 H          -3.7202    9.8324   -1.1370 H       1  UNL1        0.0631
     34 H          -3.3213   12.5102   -0.6023 H       1  UNL1        0.0650
     35 H          -4.1454   10.3049    0.9303 H       1  UNL1        0.0694
     36 H          -6.4657   10.5614    0.1810 H       1  UNL1        0.0667
     37 H          -5.7811   13.5309    0.7168 H       1  UNL1        0.0866
     38 H          -7.8822   14.7942    0.8000 H       1  UNL1        0.1030
     39 H          -8.8547   10.3427   -3.8280 H       1  UNL1        0.1048
     40 H         -11.7068   14.4263   -3.0005 H       1  UNL1        0.1438
     41 H         -12.4765   13.0314   -2.2783 H       1  UNL1        0.1438
     42 H          -7.4026   11.8484    2.1347 H       1  UNL1        0.2101
@<TRIPOS>BOND
     1     1     2    1
     2     1     3    1
     3     1     4    1
     4     1     8    1
     5     5     6    1
     6     5     7    1
     7     5     8    1
     8     5     9    1
     9     9    10    1
    10    10    11    1
    11    11    12    1
    12    11    13    1
    13    12    21    1
    14    13    14    1
    15    13    19    1
    16    14    15    1
    17    15    16    1
    18    15    17    1
    19    15    18    1
    20    19    20    1
    21    19    21    1
    22    21    22    1
    23    22    23   ar
    24    22    31   ar
    25    23    24   ar
    26    24    25   ar
    27    25    26   ar
    28    25    31   ar
    29    26    27    1
    30    26    28   ar
    31    28    29   ar
    32    29    30   ar
    33    30    31   ar
    34    32    10    1
    35    33    10    1
    36    11    34    1
    37    13    35    1
    38    19    36    1
    39    21    37    1
    40    38    23    1
    41    39    29    1
    42    40    27    1
    43    41    27    1
    44    42    20    1
@<TRIPOS>SUBSTRUCTURE
     1 UNL1        1 TEMP              0 ****  ****    0 ROOT

########## Name:	17	-175.115  0.971333
@<TRIPOS>MOLECULE
af2_protein.mol217	
 42 44 1 0 0
SMALL
GASTEIGER


@<TRIPOS>ATOM
      1 P          -2.5351    9.1808   -4.9386 P.3     1  UNL1        0.0544
      2 O          -1.8109    9.4541   -6.1963 O.co2   1  UNL1       -0.6615
      3 O          -1.7898    9.5603   -3.6907 O.co2   1  UNL1       -0.6615
      4 O          -3.1336    7.8270   -4.8761 O.co2   1  UNL1       -0.6615
      5 P          -4.9240   10.8763   -3.8086 P.3     1  UNL1        0.2491
      6 O          -4.0617   11.2354   -2.6439 O.co2   1  UNL1       -0.6337
      7 O          -6.1175   10.0201   -3.5703 O.co2   1  UNL1       -0.6337
      8 O          -3.8181   10.2122   -4.9456 O.3     1  UNL1       -0.0930
      9 O          -5.4095   12.2767   -4.4821 O.3     1  UNL1       -0.2057
     10 C          -5.9736   13.3049   -3.6922 C.3     1  UNL1        0.1232
     11 C          -7.1444   12.6800   -2.9919 C.3     1  UNL1        0.1214
     12 O          -6.7085   12.4332   -1.6509 O.3     1  UNL1       -0.3453
     13 C          -8.3738   13.6241   -2.8950 C.3     1  UNL1        0.1593
     14 O          -9.5960   12.8334   -2.9513 O.3     1  UNL1       -0.2421
     15 P          -9.9823   11.9189   -4.3409 P.3     1  UNL1       -0.0004
     16 O         -11.3958   12.3203   -4.5495 O.co2   1  UNL1       -0.6646
     17 O          -9.0226   12.4398   -5.3475 O.co2   1  UNL1       -0.6646
     18 O          -9.7308   10.4895   -3.9838 O.co2   1  UNL1       -0.6646
     19 C          -8.1676   14.2287   -1.5115 C.3     1  UNL1        0.1329
     20 O          -9.4056   14.7623   -0.9916 O.3     1  UNL1       -0.3845
     21 C          -7.7469   12.9198   -0.8144 C.3     1  UNL1        0.1668
     22 N          -7.1138   13.0473    0.5176 N.ar    1  UNL1       -0.2855
     23 C          -7.6873   12.5494    1.6608 C.ar    1  UNL1        0.1004
     24 N          -6.9939   12.7631    2.7395 N.ar    1  UNL1       -0.2306
     25 C          -5.8343   13.4752    2.2951 C.ar    1  UNL1        0.1473
     26 C          -4.6678   13.9902    3.0065 C.ar    1  UNL1        0.1472
     27 N          -4.5575   13.9387    4.3483 N.pl3   1  UNL1       -0.3413
     28 N          -3.7072   14.6027    2.2655 N.ar    1  UNL1       -0.2188
     29 C          -3.9072   14.7101    0.9436 C.ar    1  UNL1        0.1205
     30 N          -4.9328   14.2944    0.1616 N.ar    1  UNL1       -0.2159
     31 C          -5.8957   13.6578    0.9179 C.ar    1  UNL1        0.1674
     32 H          -5.2464   13.6691   -2.9664 H       1  UNL1        0.0631
     33 H          -6.3106   14.1235   -4.3281 H       1  UNL1        0.0631
     34 H          -7.4221   11.7449   -3.4783 H       1  UNL1        0.0650
     35 H          -8.3547   14.3877   -3.6726 H       1  UNL1        0.0694
     36 H          -7.3686   14.9700   -1.5049 H       1  UNL1        0.0667
     37 H          -8.5782   12.2156   -0.7812 H       1  UNL1        0.0866
     38 H          -8.6320   12.0257    1.6639 H       1  UNL1        0.1030
     39 H          -3.1145   15.2146    0.4111 H       1  UNL1        0.1048
     40 H          -4.3578   13.0605    4.8054 H       1  UNL1        0.1438
     41 H          -4.6746   14.7784    4.8971 H       1  UNL1        0.1438
     42 H          -9.3980   14.7133   -0.0329 H       1  UNL1        0.2101
@<TRIPOS>BOND
     1     1     2    1
     2     1     3    1
     3     1     4    1
     4     1     8    1
     5     5     6    1
     6     5     7    1
     7     5     8    1
     8     5     9    1
     9     9    10    1
    10    10    11    1
    11    11    12    1
    12    11    13    1
    13    12    21    1
    14    13    14    1
    15    13    19    1
    16    14    15    1
    17    15    16    1
    18    15    17    1
    19    15    18    1
    20    19    20    1
    21    19    21    1
    22    21    22    1
    23    22    23   ar
    24    22    31   ar
    25    23    24   ar
    26    24    25   ar
    27    25    26   ar
    28    25    31   ar
    29    26    27    1
    30    26    28   ar
    31    28    29   ar
    32    29    30   ar
    33    30    31   ar
    34    32    10    1
    35    33    10    1
    36    11    34    1
    37    13    35    1
    38    19    36    1
    39    21    37    1
    40    38    23    1
    41    39    29    1
    42    40    27    1
    43    41    27    1
    44    42    20    1
@<TRIPOS>SUBSTRUCTURE
     1 UNL1        1 TEMP              0 ****  ****    0 ROOT

########## Name:	18	-173.777  0.965944
@<TRIPOS>MOLECULE
af2_protein.mol218	
 42 44 1 0 0
SMALL
GASTEIGER


@<TRIPOS>ATOM
      1 P          -1.8741    9.3518   -5.0554 P.3     1  UNL1        0.0544
      2 O          -1.5961    9.5320   -6.4946 O.co2   1  UNL1       -0.6615
      3 O          -0.8550    9.9658   -4.1381 O.co2   1  UNL1       -0.6615
      4 O          -2.2353    7.9633   -4.6860 O.co2   1  UNL1       -0.6615
      5 P          -4.0358   10.9247   -3.4085 P.3     1  UNL1        0.2491
      6 O          -2.9276   11.5197   -2.6042 O.co2   1  UNL1       -0.6337
      7 O          -4.9768    9.9883   -2.7361 O.co2   1  UNL1       -0.6337
      8 O          -3.2320   10.2356   -4.7634 O.3     1  UNL1       -0.0930
      9 O          -4.8858   12.1676   -4.0274 O.3     1  UNL1       -0.2057
     10 C          -5.3293   13.2263   -3.2017 C.3     1  UNL1        0.1232
     11 C          -6.1449   12.5806   -2.1202 C.3     1  UNL1        0.1214
     12 O          -5.3049   12.5572   -0.9614 O.3     1  UNL1       -0.3453
     13 C          -7.4096   13.3973   -1.7384 C.3     1  UNL1        0.1593
     14 O          -8.4732   12.4842   -1.3421 O.3     1  UNL1       -0.2421
     15 P          -9.1206   11.3612   -2.4541 P.3     1  UNL1       -0.0004
     16 O         -10.5742   11.5840   -2.2543 O.co2   1  UNL1       -0.6646
     17 O          -8.5802   11.8425   -3.7510 O.co2   1  UNL1       -0.6646
     18 O          -8.5808   10.0243   -2.0602 O.co2   1  UNL1       -0.6646
     19 C          -6.8916   14.1953   -0.5479 C.3     1  UNL1        0.1329
     20 O          -7.9836   14.6616    0.2754 O.3     1  UNL1       -0.3845
     21 C          -6.1085   13.0390    0.1047 C.3     1  UNL1        0.1668
     22 N          -5.1362   13.4039    1.1595 N.ar    1  UNL1       -0.2855
     23 C          -5.2743   13.0029    2.4648 C.ar    1  UNL1        0.1004
     24 N          -4.3311   13.4260    3.2532 N.ar    1  UNL1       -0.2306
     25 C          -3.4628   14.1899    2.4094 C.ar    1  UNL1        0.1473
     26 C          -2.2216   14.9109    2.6764 C.ar    1  UNL1        0.1472
     27 N          -1.7161   15.0465    3.9179 N.pl3   1  UNL1       -0.3413
     28 N          -1.6150   15.5173    1.6222 N.ar    1  UNL1       -0.2188
     29 C          -2.2070   15.4300    0.4220 C.ar    1  UNL1        0.1205
     30 N          -3.3496   14.8123    0.0355 N.ar    1  UNL1       -0.2159
     31 C          -3.9505   14.1838    1.1071 C.ar    1  UNL1        0.1674
     32 H          -4.4785   13.7551   -2.7719 H       1  UNL1        0.0631
     33 H          -5.9476   13.9157   -3.7764 H       1  UNL1        0.0631
     34 H          -6.4216   11.5664   -2.4083 H       1  UNL1        0.0650
     35 H          -7.7251   14.0508   -2.5517 H       1  UNL1        0.0694
     36 H          -6.2361   15.0096   -0.8564 H       1  UNL1        0.0667
     37 H          -6.7880   12.2632    0.4574 H       1  UNL1        0.0866
     38 H          -6.0948   12.3894    2.8070 H       1  UNL1        0.1030
     39 H          -1.6832   15.9398   -0.3731 H       1  UNL1        0.1048
     40 H          -1.2720   14.2608    4.3711 H       1  UNL1        0.1438
     41 H          -1.7815   15.9341    4.3954 H       1  UNL1        0.1438
     42 H          -7.6881   14.7392    1.1855 H       1  UNL1        0.2101
@<TRIPOS>BOND
     1     1     2    1
     2     1     3    1
     3     1     4    1
     4     1     8    1
     5     5     6    1
     6     5     7    1
     7     5     8    1
     8     5     9    1
     9     9    10    1
    10    10    11    1
    11    11    12    1
    12    11    13    1
    13    12    21    1
    14    13    14    1
    15    13    19    1
    16    14    15    1
    17    15    16    1
    18    15    17    1
    19    15    18    1
    20    19    20    1
    21    19    21    1
    22    21    22    1
    23    22    23   ar
    24    22    31   ar
    25    23    24   ar
    26    24    25   ar
    27    25    26   ar
    28    25    31   ar
    29    26    27    1
    30    26    28   ar
    31    28    29   ar
    32    29    30   ar
    33    30    31   ar
    34    32    10    1
    35    33    10    1
    36    11    34    1
    37    13    35    1
    38    19    36    1
    39    21    37    1
    40    38    23    1
    41    39    29    1
    42    40    27    1
    43    41    27    1
    44    42    20    1
@<TRIPOS>SUBSTRUCTURE
     1 UNL1        1 TEMP              0 ****  ****    0 ROOT

########## Name:	19	-233.158  0.966281
@<TRIPOS>MOLECULE
af2_protein.mol219	
 42 44 1 0 0
SMALL
GASTEIGER


@<TRIPOS>ATOM
      1 P          -2.6165    9.2329   -4.6832 P.3     1  UNL1        0.0544
      2 O          -2.3187    9.3767   -6.1225 O.co2   1  UNL1       -0.6615
      3 O          -1.5049    9.6598   -3.7672 O.co2   1  UNL1       -0.6615
      4 O          -3.2030    7.9211   -4.3227 O.co2   1  UNL1       -0.6615
      5 P          -4.4772   11.1304   -3.0111 P.3     1  UNL1        0.2491
      6 O          -3.2815   11.5247   -2.2087 O.co2   1  UNL1       -0.6337
      7 O          -5.5585   10.3586   -2.3405 O.co2   1  UNL1       -0.6337
      8 O          -3.8061   10.3286   -4.3762 O.3     1  UNL1       -0.0930
      9 O          -5.1103   12.5033   -3.6151 O.3     1  UNL1       -0.2057
     10 C          -5.3667   13.6140   -2.7784 C.3     1  UNL1        0.1232
     11 C          -6.2739   13.1042   -1.6973 C.3     1  UNL1        0.1214
     12 O          -5.4444   12.9305   -0.5437 O.3     1  UNL1       -0.3453
     13 C          -7.3825   14.1175   -1.3014 C.3     1  UNL1        0.1593
     14 O          -8.5820   13.3915   -0.9062 O.3     1  UNL1       -0.2421
     15 P          -9.4131   12.4024   -2.0231 P.3     1  UNL1       -0.0004
     16 O         -10.8080   12.8632   -1.8130 O.co2   1  UNL1       -0.6646
     17 O          -8.8056   12.7980   -3.3193 O.co2   1  UNL1       -0.6646
     18 O          -9.1026   10.9906   -1.6430 O.co2   1  UNL1       -0.6646
     19 C          -6.7329   14.8071   -0.1078 C.3     1  UNL1        0.1329
     20 O          -7.7279   15.4421    0.7257 O.3     1  UNL1       -0.3845
     21 C          -6.1513   13.5305    0.5309 C.3     1  UNL1        0.1668
     22 N          -5.1269   13.7183    1.5828 N.ar    1  UNL1       -0.2855
     23 C          -5.3243   13.3346    2.8857 C.ar    1  UNL1        0.1004
     24 N          -4.3200   13.5871    3.6718 N.ar    1  UNL1       -0.2306
     25 C          -3.3400   14.2025    2.8290 C.ar    1  UNL1        0.1473
     26 C          -1.9945   14.7035    3.0944 C.ar    1  UNL1        0.1472
     27 N          -1.4679   14.7418    4.3338 N.pl3   1  UNL1       -0.3413
     28 N          -1.2998   15.2093    2.0414 N.ar    1  UNL1       -0.2188
     29 C          -1.9035   15.2328    0.8440 C.ar    1  UNL1        0.1205
     30 N          -3.1350   14.8181    0.4594 N.ar    1  UNL1       -0.2159
     31 C          -3.8278   14.2896    1.5296 C.ar    1  UNL1        0.1674
     32 H          -4.4375   13.9893   -2.3495 H       1  UNL1        0.0631
     33 H          -5.8636   14.4021   -3.3439 H       1  UNL1        0.0631
     34 H          -6.7175   12.1531   -1.9917 H       1  UNL1        0.0650
     35 H          -7.5880   14.8216   -2.1076 H       1  UNL1        0.0694
     36 H          -5.9519   15.5031   -0.4137 H       1  UNL1        0.0667
     37 H          -6.9494   12.8761    0.8815 H       1  UNL1        0.0866
     38 H          -6.2341   12.8640    3.2280 H       1  UNL1        0.1030
     39 H          -1.3055   15.6548    0.0500 H       1  UNL1        0.1048
     40 H          -1.1593   13.8889    4.7782 H       1  UNL1        0.1438
     41 H          -1.3817   15.6235    4.8188 H       1  UNL1        0.1438
     42 H          -7.4195   15.4612    1.6346 H       1  UNL1        0.2101
@<TRIPOS>BOND
     1     1     2    1
     2     1     3    1
     3     1     4    1
     4     1     8    1
     5     5     6    1
     6     5     7    1
     7     5     8    1
     8     5     9    1
     9     9    10    1
    10    10    11    1
    11    11    12    1
    12    11    13    1
    13    12    21    1
    14    13    14    1
    15    13    19    1
    16    14    15    1
    17    15    16    1
    18    15    17    1
    19    15    18    1
    20    19    20    1
    21    19    21    1
    22    21    22    1
    23    22    23   ar
    24    22    31   ar
    25    23    24   ar
    26    24    25   ar
    27    25    26   ar
    28    25    31   ar
    29    26    27    1
    30    26    28   ar
    31    28    29   ar
    32    29    30   ar
    33    30    31   ar
    34    32    10    1
    35    33    10    1
    36    11    34    1
    37    13    35    1
    38    19    36    1
    39    21    37    1
    40    38    23    1
    41    39    29    1
    42    40    27    1
    43    41    27    1
    44    42    20    1
@<TRIPOS>SUBSTRUCTURE
     1 UNL1        1 TEMP              0 ****  ****    0 ROOT

########## Name:	0	823.788  0.966527
@<TRIPOS>MOLECULE
af2_protein.mol20	
 42 44 1 0 0
SMALL
GASTEIGER


@<TRIPOS>ATOM
      1 P         -11.7853   15.6040   -2.7122 P.3     1  UNL1        0.0544
      2 O         -12.6492   16.4121   -3.5963 O.co2   1  UNL1       -0.6615
      3 O         -12.2075   14.1701   -2.5626 O.co2   1  UNL1       -0.6615
      4 O         -11.4701   16.2608   -1.4222 O.co2   1  UNL1       -0.6615
      5 P          -8.9432   14.4985   -3.4600 P.3     1  UNL1        0.2491
      6 O          -9.4970   13.1170   -3.3419 O.co2   1  UNL1       -0.6337
      7 O          -7.9236   14.9410   -2.4705 O.co2   1  UNL1       -0.6337
      8 O         -10.3425   15.4971   -3.4978 O.3     1  UNL1       -0.0930
      9 O          -8.3119   14.6244   -4.9553 O.3     1  UNL1       -0.2057
     10 C          -7.4223   13.6442   -5.4526 C.3     1  UNL1        0.1232
     11 C          -6.2968   13.5804   -4.4622 C.3     1  UNL1        0.1214
     12 O          -6.5307   12.4023   -3.6835 O.3     1  UNL1       -0.3453
     13 C          -4.9050   13.4059   -5.1290 C.3     1  UNL1        0.1593
     14 O          -3.8965   14.0859   -4.3275 O.3     1  UNL1       -0.2421
     15 P          -3.9527   15.7780   -4.1036 P.3     1  UNL1       -0.0004
     16 O          -2.5465   16.1421   -4.4081 O.co2   1  UNL1       -0.6646
     17 O          -4.9496   16.2052   -5.1182 O.co2   1  UNL1       -0.6646
     18 O          -4.4200   15.9988   -2.7012 O.co2   1  UNL1       -0.6646
     19 C          -4.7388   11.8925   -5.0623 C.3     1  UNL1        0.1329
     20 O          -3.3469   11.5208   -5.1736 O.3     1  UNL1       -0.3845
     21 C          -5.2851   11.7239   -3.6308 C.3     1  UNL1        0.1668
     22 N          -5.6352   10.3491   -3.2083 N.ar    1  UNL1       -0.2855
     23 C          -4.9817    9.6976   -2.1923 C.ar    1  UNL1        0.1004
     24 N          -5.4172    8.4935   -1.9668 N.ar    1  UNL1       -0.2306
     25 C          -6.4694    8.2997   -2.9179 C.ar    1  UNL1        0.1473
     26 C          -7.3646    7.1750   -3.1737 C.ar    1  UNL1        0.1472
     27 N          -7.2454    5.9951   -2.5343 N.pl3   1  UNL1       -0.3413
     28 N          -8.2972    7.3314   -4.1498 N.ar    1  UNL1       -0.2188
     29 C          -8.3154    8.4926   -4.8205 C.ar    1  UNL1        0.1205
     30 N          -7.5483    9.6031   -4.6991 N.ar    1  UNL1       -0.2159
     31 C          -6.6156    9.4440   -3.6945 C.ar    1  UNL1        0.1674
     32 H          -7.9221   12.6780   -5.5230 H       1  UNL1        0.0631
     33 H          -7.0446   13.9428   -6.4304 H       1  UNL1        0.0631
     34 H          -6.3030   14.4640   -3.8239 H       1  UNL1        0.0650
     35 H          -4.9064   13.7636   -6.1586 H       1  UNL1        0.0694
     36 H          -5.3583   11.3809   -5.7989 H       1  UNL1        0.0667
     37 H          -4.6200   12.1931   -2.9059 H       1  UNL1        0.0866
     38 H          -4.1764   10.1459   -1.6294 H       1  UNL1        0.1030
     39 H          -9.0713    8.5530   -5.5895 H       1  UNL1        0.1048
     40 H          -7.5341    5.9116   -1.5701 H       1  UNL1        0.1438
     41 H          -6.8669    5.1940   -3.0192 H       1  UNL1        0.1438
     42 H          -3.1955   10.7004   -4.6985 H       1  UNL1        0.2101
@<TRIPOS>BOND
     1     1     2    1
     2     1     3    1
     3     1     4    1
     4     1     8    1
     5     5     6    1
     6     5     7    1
     7     5     8    1
     8     5     9    1
     9     9    10    1
    10    10    11    1
    11    11    12    1
    12    11    13    1
    13    12    21    1
    14    13    14    1
    15    13    19    1
    16    14    15    1
    17    15    16    1
    18    15    17    1
    19    15    18    1
    20    19    20    1
    21    19    21    1
    22    21    22    1
    23    22    23   ar
    24    22    31   ar
    25    23    24   ar
    26    24    25   ar
    27    25    26   ar
    28    25    31   ar
    29    26    27    1
    30    26    28   ar
    31    28    29   ar
    32    29    30   ar
    33    30    31   ar
    34    32    10    1
    35    33    10    1
    36    11    34    1
    37    13    35    1
    38    19    36    1
    39    21    37    1
    40    38    23    1
    41    39    29    1
    42    40    27    1
    43    41    27    1
    44    42    20    1
@<TRIPOS>SUBSTRUCTURE
     1 UNL1        1 TEMP              0 ****  ****    0 ROOT

########## Name:	1	1041.73  0.964559
@<TRIPOS>MOLECULE
af2_protein.mol21	
 42 44 1 0 0
SMALL
GASTEIGER


@<TRIPOS>ATOM
      1 P          -3.8257   13.3832    6.2131 P.3     1  UNL1        0.0544
      2 O          -4.4975   13.6476    7.5014 O.co2   1  UNL1       -0.6615
      3 O          -3.8206   11.9409    5.7929 O.co2   1  UNL1       -0.6615
      4 O          -2.5023   14.0367    6.0843 O.co2   1  UNL1       -0.6615
      5 P          -5.0149   14.0159    3.3769 P.3     1  UNL1        0.2491
      6 O          -5.0198   12.5490    3.0993 O.co2   1  UNL1       -0.6337
      7 O          -4.0921   14.8828    2.5950 O.co2   1  UNL1       -0.6337
      8 O          -4.7698   14.1087    5.0763 O.3     1  UNL1       -0.0930
      9 O          -6.5402   14.5402    3.1557 O.3     1  UNL1       -0.2057
     10 C          -7.2551   14.2181    1.9790 C.3     1  UNL1        0.1232
     11 C          -6.4091   14.7152    0.8436 C.3     1  UNL1        0.1214
     12 O          -5.7710   13.5559    0.2978 O.3     1  UNL1       -0.3453
     13 C          -7.2397   15.3501   -0.3050 C.3     1  UNL1        0.1593
     14 O          -6.4697   16.4211   -0.9232 O.3     1  UNL1       -0.2421
     15 P          -6.0210   17.8044   -0.0278 P.3     1  UNL1       -0.0004
     16 O          -6.4254   18.8813   -0.9654 O.co2   1  UNL1       -0.6646
     17 O          -6.8570   17.6836    1.1938 O.co2   1  UNL1       -0.6646
     18 O          -4.5596   17.6650    0.2524 O.co2   1  UNL1       -0.6646
     19 C          -7.3904   14.1609   -1.2460 C.3     1  UNL1        0.1329
     20 O          -7.6993   14.6002   -2.5875 O.3     1  UNL1       -0.3845
     21 C          -5.9428   13.6496   -1.1080 C.3     1  UNL1        0.1668
     22 N          -5.6689   12.2813   -1.6018 N.ar    1  UNL1       -0.2855
     23 C          -4.8238   12.0288   -2.6534 C.ar    1  UNL1        0.1004
     24 N          -4.7124   10.7690   -2.9546 N.ar    1  UNL1       -0.2306
     25 C          -5.5612   10.0922   -2.0216 C.ar    1  UNL1        0.1473
     26 C          -5.8640    8.6783   -1.8189 C.ar    1  UNL1        0.1472
     27 N          -5.4016    7.7144   -2.6387 N.pl3   1  UNL1       -0.3413
     28 N          -6.7046    8.3619   -0.7989 N.ar    1  UNL1       -0.2188
     29 C          -7.2113    9.3660   -0.0684 C.ar    1  UNL1        0.1205
     30 N          -7.0289   10.7064   -0.1496 N.ar    1  UNL1       -0.2159
     31 C          -6.1607   11.0190   -1.1757 C.ar    1  UNL1        0.1674
     32 H          -7.3971   13.1399    1.9036 H       1  UNL1        0.0631
     33 H          -8.2203   14.7242    1.9767 H       1  UNL1        0.0631
     34 H          -5.6636   15.4222    1.2076 H       1  UNL1        0.0650
     35 H          -8.2072   15.7055    0.0493 H       1  UNL1        0.0694
     36 H          -8.1163   13.4370   -0.8760 H       1  UNL1        0.0667
     37 H          -5.2388   14.3630   -1.5365 H       1  UNL1        0.0866
     38 H          -4.2974   12.8085   -3.1840 H       1  UNL1        0.1030
     39 H          -7.8794    9.0525    0.7200 H       1  UNL1        0.1048
     40 H          -4.4312    7.4378   -2.5963 H       1  UNL1        0.1438
     41 H          -6.0255    7.2683   -3.2959 H       1  UNL1        0.1438
     42 H          -7.3552   13.9650   -3.2197 H       1  UNL1        0.2101
@<TRIPOS>BOND
     1     1     2    1
     2     1     3    1
     3     1     4    1
     4     1     8    1
     5     5     6    1
     6     5     7    1
     7     5     8    1
     8     5     9    1
     9     9    10    1
    10    10    11    1
    11    11    12    1
    12    11    13    1
    13    12    21    1
    14    13    14    1
    15    13    19    1
    16    14    15    1
    17    15    16    1
    18    15    17    1
    19    15    18    1
    20    19    20    1
    21    19    21    1
    22    21    22    1
    23    22    23   ar
    24    22    31   ar
    25    23    24   ar
    26    24    25   ar
    27    25    26   ar
    28    25    31   ar
    29    26    27    1
    30    26    28   ar
    31    28    29   ar
    32    29    30   ar
    33    30    31   ar
    34    32    10    1
    35    33    10    1
    36    11    34    1
    37    13    35    1
    38    19    36    1
    39    21    37    1
    40    38    23    1
    41    39    29    1
    42    40    27    1
    43    41    27    1
    44    42    20    1
@<TRIPOS>SUBSTRUCTURE
     1 UNL1        1 TEMP              0 ****  ****    0 ROOT

########## Name:	2	1095.02  0.964364
@<TRIPOS>MOLECULE
af2_protein.mol22	
 42 44 1 0 0
SMALL
GASTEIGER


@<TRIPOS>ATOM
      1 P          -7.9358   17.3988   -4.5713 P.3     1  UNL1        0.0544
      2 O          -8.3529   17.4436   -5.9873 O.co2   1  UNL1       -0.6615
      3 O          -9.0242   17.0172   -3.6087 O.co2   1  UNL1       -0.6615
      4 O          -7.1595   18.5845   -4.1395 O.co2   1  UNL1       -0.6615
      5 P          -6.2209   15.1244   -3.2502 P.3     1  UNL1        0.2491
      6 O          -7.3966   14.7970   -2.3901 O.co2   1  UNL1       -0.6337
      7 O          -5.0031   15.6843   -2.6039 O.co2   1  UNL1       -0.6337
      8 O          -6.8793   16.1403   -4.4714 O.3     1  UNL1       -0.0930
      9 O          -5.8167   13.7553   -4.0329 O.3     1  UNL1       -0.2057
     10 C          -5.6468   12.5404   -3.3297 C.3     1  UNL1        0.1232
     11 C          -4.6053   12.8199   -2.2862 C.3     1  UNL1        0.1214
     12 O          -5.3197   12.9719   -1.0551 O.3     1  UNL1       -0.3453
     13 C          -3.6119   11.6434   -2.0835 C.3     1  UNL1        0.1593
     14 O          -2.3029   12.1725   -1.7247 O.3     1  UNL1       -0.2421
     15 P          -1.4335   13.1643   -2.8096 P.3     1  UNL1       -0.0004
     16 O          -0.0986   12.5174   -2.7631 O.co2   1  UNL1       -0.6646
     17 O          -2.1792   12.9833   -4.0811 O.co2   1  UNL1       -0.6646
     18 O          -1.5298   14.5558   -2.2727 O.co2   1  UNL1       -0.6646
     19 C          -4.2574   10.9171   -0.9097 C.3     1  UNL1        0.1329
     20 O          -3.2957   10.0820   -0.2275 O.3     1  UNL1       -0.3845
     21 C          -4.6208   12.1812   -0.1060 C.3     1  UNL1        0.1668
     22 N          -5.5822   12.0107    1.0066 N.ar    1  UNL1       -0.2855
     23 C          -5.2431   12.2292    2.3185 C.ar    1  UNL1        0.1004
     24 N          -6.2122   12.0201    3.1595 N.ar    1  UNL1       -0.2306
     25 C          -7.3220   11.6203    2.3486 C.ar    1  UNL1        0.1473
     26 C          -8.6984   11.2620    2.6786 C.ar    1  UNL1        0.1472
     27 N          -9.1346   11.1588    3.9491 N.pl3   1  UNL1       -0.3413
     28 N          -9.5271   10.9575    1.6454 N.ar    1  UNL1       -0.2188
     29 C          -9.0197   10.9859    0.4043 C.ar    1  UNL1        0.1205
     30 N          -7.7759   11.2853   -0.0426 N.ar    1  UNL1       -0.2159
     31 C          -6.9449   11.6107    1.0101 C.ar    1  UNL1        0.1674
     32 H          -6.5833   12.2383   -2.8609 H       1  UNL1        0.0631
     33 H          -5.2985   11.7610   -4.0074 H       1  UNL1        0.0631
     34 H          -4.0645   13.7354   -2.5260 H       1  UNL1        0.0650
     35 H          -3.5583   11.0076   -2.9672 H       1  UNL1        0.0694
     36 H          -5.1422   10.3573   -1.2126 H       1  UNL1        0.0667
     37 H          -3.7213   12.6933    0.2359 H       1  UNL1        0.0866
     38 H          -4.2575   12.5471    2.6252 H       1  UNL1        0.1030
     39 H          -9.7233   10.7252   -0.3725 H       1  UNL1        0.1048
     40 H          -9.2969   11.9917    4.4968 H       1  UNL1        0.1438
     41 H          -9.2991   10.2483    4.3541 H       1  UNL1        0.1438
     42 H          -3.5374   10.0057    0.6985 H       1  UNL1        0.2101
@<TRIPOS>BOND
     1     1     2    1
     2     1     3    1
     3     1     4    1
     4     1     8    1
     5     5     6    1
     6     5     7    1
     7     5     8    1
     8     5     9    1
     9     9    10    1
    10    10    11    1
    11    11    12    1
    12    11    13    1
    13    12    21    1
    14    13    14    1
    15    13    19    1
    16    14    15    1
    17    15    16    1
    18    15    17    1
    19    15    18    1
    20    19    20    1
    21    19    21    1
    22    21    22    1
    23    22    23   ar
    24    22    31   ar
    25    23    24   ar
    26    24    25   ar
    27    25    26   ar
    28    25    31   ar
    29    26    27    1
    30    26    28   ar
    31    28    29   ar
    32    29    30   ar
    33    30    31   ar
    34    32    10    1
    35    33    10    1
    36    11    34    1
    37    13    35    1
    38    19    36    1
    39    21    37    1
    40    38    23    1
    41    39    29    1
    42    40    27    1
    43    41    27    1
    44    42    20    1
@<TRIPOS>SUBSTRUCTURE
     1 UNL1        1 TEMP              0 ****  ****    0 ROOT

########## Name:	3	1395.2  0.967459
@<TRIPOS>MOLECULE
af2_protein.mol23	
 42 44 1 0 0
SMALL
GASTEIGER


@<TRIPOS>ATOM
      1 P          -4.2308   18.8410    1.9577 P.3     1  UNL1        0.0544
      2 O          -3.0543   19.4733    2.5877 O.co2   1  UNL1       -0.6615
      3 O          -4.3849   19.1250    0.4905 O.co2   1  UNL1       -0.6615
      4 O          -5.4860   19.0172    2.7246 O.co2   1  UNL1       -0.6615
      5 P          -4.4812   15.8018    1.2095 P.3     1  UNL1        0.2491
      6 O          -4.5609   16.2061   -0.2255 O.co2   1  UNL1       -0.6337
      7 O          -5.6833   15.1958    1.8435 O.co2   1  UNL1       -0.6337
      8 O          -3.9287   17.2234    2.0037 O.3     1  UNL1       -0.0930
      9 O          -3.2395   14.7564    1.3340 O.3     1  UNL1       -0.2057
     10 C          -3.1294   13.6523    0.4575 C.3     1  UNL1        0.1232
     11 C          -4.4133   12.8897    0.6054 C.3     1  UNL1        0.1214
     12 O          -5.1961   13.2195   -0.5467 O.3     1  UNL1       -0.3453
     13 C          -4.2151   11.3494    0.5844 C.3     1  UNL1        0.1593
     14 O          -5.2125   10.7221    1.4410 O.3     1  UNL1       -0.2421
     15 P          -5.2443   11.0347    3.1197 P.3     1  UNL1       -0.0004
     16 O          -5.3421    9.6537    3.6542 O.co2   1  UNL1       -0.6646
     17 O          -3.9409   11.7093    3.3473 O.co2   1  UNL1       -0.6646
     18 O          -6.4135   11.9355    3.3551 O.co2   1  UNL1       -0.6646
     19 C          -4.4748   11.0431   -0.8856 C.3     1  UNL1        0.1329
     20 O          -4.8230    9.6528   -1.0694 O.3     1  UNL1       -0.3845
     21 C          -5.6856   11.9837   -1.0444 C.3     1  UNL1        0.1668
     22 N          -6.1147   12.2907   -2.4275 N.ar    1  UNL1       -0.2855
     23 C          -7.3380   11.9156   -2.9239 C.ar    1  UNL1        0.1004
     24 N          -7.5380   12.2614   -4.1611 N.ar    1  UNL1       -0.2306
     25 C          -6.3384   12.9381   -4.5514 C.ar    1  UNL1        0.1473
     26 C          -5.9359   13.5776   -5.8008 C.ar    1  UNL1        0.1472
     27 N          -6.6927   13.5306   -6.9144 N.pl3   1  UNL1       -0.3413
     28 N          -4.7145   14.1729   -5.8299 N.ar    1  UNL1       -0.2188
     29 C          -3.9601   14.1127   -4.7226 C.ar    1  UNL1        0.1205
     30 N          -4.1980   13.5509   -3.5126 N.ar    1  UNL1       -0.2159
     31 C          -5.4467   12.9639   -3.4846 C.ar    1  UNL1        0.1674
     32 H          -3.0062   13.9938   -0.5703 H       1  UNL1        0.0631
     33 H          -2.2860   13.0262    0.7480 H       1  UNL1        0.0631
     34 H          -4.9316   13.1927    1.5152 H       1  UNL1        0.0650
     35 H          -3.2030   11.0717    0.8786 H       1  UNL1        0.0694
     36 H          -3.6395   11.3421   -1.5187 H       1  UNL1        0.0667
     37 H          -6.5277   11.6333   -0.4476 H       1  UNL1        0.0866
     38 H          -8.0705   11.3802   -2.3379 H       1  UNL1        0.1030
     39 H          -2.9977   14.5946   -4.8106 H       1  UNL1        0.1048
     40 H          -7.5291   14.0928   -6.9808 H       1  UNL1        0.1438
     41 H          -6.4237   12.9331   -7.6829 H       1  UNL1        0.1438
     42 H          -5.3986    9.5650   -1.8326 H       1  UNL1        0.2101
@<TRIPOS>BOND
     1     1     2    1
     2     1     3    1
     3     1     4    1
     4     1     8    1
     5     5     6    1
     6     5     7    1
     7     5     8    1
     8     5     9    1
     9     9    10    1
    10    10    11    1
    11    11    12    1
    12    11    13    1
    13    12    21    1
    14    13    14    1
    15    13    19    1
    16    14    15    1
    17    15    16    1
    18    15    17    1
    19    15    18    1
    20    19    20    1
    21    19    21    1
    22    21    22    1
    23    22    23   ar
    24    22    31   ar
    25    23    24   ar
    26    24    25   ar
    27    25    26   ar
    28    25    31   ar
    29    26    27    1
    30    26    28   ar
    31    28    29   ar
    32    29    30   ar
    33    30    31   ar
    34    32    10    1
    35    33    10    1
    36    11    34    1
    37    13    35    1
    38    19    36    1
    39    21    37    1
    40    38    23    1
    41    39    29    1
    42    40    27    1
    43    41    27    1
    44    42    20    1
@<TRIPOS>SUBSTRUCTURE
     1 UNL1        1 TEMP              0 ****  ****    0 ROOT

########## Name:	4	933.351  0.962604
@<TRIPOS>MOLECULE
af2_protein.mol24	
 42 44 1 0 0
SMALL
GASTEIGER


@<TRIPOS>ATOM
      1 P          -2.6545    8.1520   -3.9195 P.3     1  UNL1        0.0544
      2 O          -1.6265    8.0920   -4.9780 O.co2   1  UNL1       -0.6615
      3 O          -2.1144    8.3452   -2.5310 O.co2   1  UNL1       -0.6615
      4 O          -3.6688    7.0760   -4.0102 O.co2   1  UNL1       -0.6615
      5 P          -4.5254   10.6053   -3.3364 P.3     1  UNL1        0.2491
      6 O          -3.8667   10.7356   -2.0028 O.co2   1  UNL1       -0.6337
      7 O          -5.9577   10.2045   -3.3839 O.co2   1  UNL1       -0.6337
      8 O          -3.4860    9.5442   -4.2028 O.3     1  UNL1       -0.0930
      9 O          -4.3577   12.0414   -4.0846 O.3     1  UNL1       -0.2057
     10 C          -4.7034   13.2459   -3.4296 C.3     1  UNL1        0.1232
     11 C          -6.1377   13.0852   -3.0190 C.3     1  UNL1        0.1214
     12 O          -6.1107   12.7953   -1.6175 O.3     1  UNL1       -0.3453
     13 C          -6.9717   14.3841   -3.1903 C.3     1  UNL1        0.1593
     14 O          -8.3447   14.0357   -3.5304 O.3     1  UNL1       -0.2421
     15 P          -8.7032   13.2114   -4.9825 P.3     1  UNL1       -0.0004
     16 O          -9.8209   14.0397   -5.4995 O.co2   1  UNL1       -0.6646
     17 O          -7.4309   13.3237   -5.7403 O.co2   1  UNL1       -0.6646
     18 O          -9.0267   11.8045   -4.5957 O.co2   1  UNL1       -0.6646
     19 C          -6.8805   14.9748   -1.7885 C.3     1  UNL1        0.1329
     20 O          -7.9509   15.9167   -1.5546 O.3     1  UNL1       -0.3845
     21 C          -7.0821   13.6477   -1.0308 C.3     1  UNL1        0.1668
     22 N          -6.7473   13.6455    0.4111 N.ar    1  UNL1       -0.2855
     23 C          -7.6872   13.4371    1.3893 C.ar    1  UNL1        0.1004
     24 N          -7.2133   13.4803    2.5992 N.ar    1  UNL1       -0.2306
     25 C          -5.8156   13.7432    2.4366 C.ar    1  UNL1        0.1473
     26 C          -4.7277   13.8918    3.3990 C.ar    1  UNL1        0.1472
     27 N          -4.9342   13.8928    4.7303 N.pl3   1  UNL1       -0.3413
     28 N          -3.4815   14.1071    2.9013 N.ar    1  UNL1       -0.2188
     29 C          -3.3428   14.1894    1.5698 C.ar    1  UNL1        0.1205
     30 N          -4.2531   14.0837    0.5716 N.ar    1  UNL1       -0.2159
     31 C          -5.5128   13.8474    1.0834 C.ar    1  UNL1        0.1674
     32 H          -4.0720   13.3972   -2.5541 H       1  UNL1        0.0631
     33 H          -4.6018   14.0873   -4.1149 H       1  UNL1        0.0631
     34 H          -6.5992   12.2636   -3.5671 H       1  UNL1        0.0650
     35 H          -6.5311   15.0480   -3.9340 H       1  UNL1        0.0694
     36 H          -5.9015   15.4122   -1.5927 H       1  UNL1        0.0667
     37 H          -8.0870   13.2584   -1.1945 H       1  UNL1        0.0866
     38 H          -8.7293   13.2532    1.1729 H       1  UNL1        0.1030
     39 H          -2.3319   14.3712    1.2360 H       1  UNL1        0.1048
     40 H          -5.1431   13.0288    5.2098 H       1  UNL1        0.1438
     41 H          -4.8804   14.7578    5.2490 H       1  UNL1        0.1438
     42 H          -8.1679   15.9293   -0.6195 H       1  UNL1        0.2101
@<TRIPOS>BOND
     1     1     2    1
     2     1     3    1
     3     1     4    1
     4     1     8    1
     5     5     6    1
     6     5     7    1
     7     5     8    1
     8     5     9    1
     9     9    10    1
    10    10    11    1
    11    11    12    1
    12    11    13    1
    13    12    21    1
    14    13    14    1
    15    13    19    1
    16    14    15    1
    17    15    16    1
    18    15    17    1
    19    15    18    1
    20    19    20    1
    21    19    21    1
    22    21    22    1
    23    22    23   ar
    24    22    31   ar
    25    23    24   ar
    26    24    25   ar
    27    25    26   ar
    28    25    31   ar
    29    26    27    1
    30    26    28   ar
    31    28    29   ar
    32    29    30   ar
    33    30    31   ar
    34    32    10    1
    35    33    10    1
    36    11    34    1
    37    13    35    1
    38    19    36    1
    39    21    37    1
    40    38    23    1
    41    39    29    1
    42    40    27    1
    43    41    27    1
    44    42    20    1
@<TRIPOS>SUBSTRUCTURE
     1 UNL1        1 TEMP              0 ****  ****    0 ROOT

########## Name:	5	1330.2  0.970268
@<TRIPOS>MOLECULE
af2_protein.mol25	
 42 44 1 0 0
SMALL
GASTEIGER


@<TRIPOS>ATOM
      1 P          -4.1733   18.4795   -3.1161 P.3     1  UNL1        0.0544
      2 O          -3.0416   18.9695   -3.9285 O.co2   1  UNL1       -0.6615
      3 O          -5.3454   17.9784   -3.9111 O.co2   1  UNL1       -0.6615
      4 O          -4.5583   19.3933   -2.0154 O.co2   1  UNL1       -0.6615
      5 P          -4.2667   15.7354   -1.5928 P.3     1  UNL1        0.2491
      6 O          -5.3883   15.3253   -2.4889 O.co2   1  UNL1       -0.6337
      7 O          -4.5525   15.9398   -0.1468 O.co2   1  UNL1       -0.6337
      8 O          -3.6132   17.1249   -2.3669 O.3     1  UNL1       -0.0930
      9 O          -3.1078   14.6020   -1.7431 O.3     1  UNL1       -0.2057
     10 C          -3.4169   13.2274   -1.6230 C.3     1  UNL1        0.1232
     11 C          -4.0633   13.0749   -0.2774 C.3     1  UNL1        0.1214
     12 O          -5.4675   12.9614   -0.5315 O.3     1  UNL1       -0.3453
     13 C          -3.6371   11.7772    0.4619 C.3     1  UNL1        0.1593
     14 O          -3.6226   12.0216    1.8979 O.3     1  UNL1       -0.2421
     15 P          -2.5520   13.1645    2.5793 P.3     1  UNL1       -0.0004
     16 O          -1.9820   12.3736    3.6982 O.co2   1  UNL1       -0.6646
     17 O          -1.6165   13.4389    1.4589 O.co2   1  UNL1       -0.6646
     18 O          -3.3844   14.3508    2.9448 O.co2   1  UNL1       -0.6646
     19 C          -4.7692   10.8350    0.0710 C.3     1  UNL1        0.1329
     20 O          -4.8664    9.7319    0.9992 O.3     1  UNL1       -0.3845
     21 C          -5.9095   11.8577    0.2439 C.3     1  UNL1        0.1668
     22 N          -7.2205   11.5002   -0.3432 N.ar    1  UNL1       -0.2855
     23 C          -8.3436   11.2996    0.4198 C.ar    1  UNL1        0.1004
     24 N          -9.4018   10.9825   -0.2657 N.ar    1  UNL1       -0.2306
     25 C          -8.9641   10.9635   -1.6285 C.ar    1  UNL1        0.1473
     26 C          -9.6671   10.6969   -2.8802 C.ar    1  UNL1        0.1472
     27 N         -10.9526   10.2956   -2.9170 N.pl3   1  UNL1       -0.3413
     28 N          -8.9498   10.7970   -4.0302 N.ar    1  UNL1       -0.2188
     29 C          -7.6493   11.1102   -3.9339 C.ar    1  UNL1        0.1205
     30 N          -6.8736   11.3696   -2.8535 N.ar    1  UNL1       -0.2159
     31 C          -7.6123   11.2837   -1.6909 C.ar    1  UNL1        0.1674
     32 H          -4.1044   12.9220   -2.4119 H       1  UNL1        0.0631
     33 H          -2.5046   12.6329   -1.6701 H       1  UNL1        0.0631
     34 H          -3.8597   13.9482    0.3422 H       1  UNL1        0.0650
     35 H          -2.6727   11.4129    0.1079 H       1  UNL1        0.0694
     36 H          -4.6791   10.4942   -0.9603 H       1  UNL1        0.0667
     37 H          -6.0193   12.1404    1.2908 H       1  UNL1        0.0866
     38 H          -8.3479   11.3968    1.4955 H       1  UNL1        0.1030
     39 H          -7.1314   11.1650   -4.8800 H       1  UNL1        0.1048
     40 H         -11.6934   10.9551   -2.7259 H       1  UNL1        0.1438
     41 H         -11.1757    9.3351   -3.1354 H       1  UNL1        0.1438
     42 H          -5.7764    9.4292    1.0429 H       1  UNL1        0.2101
@<TRIPOS>BOND
     1     1     2    1
     2     1     3    1
     3     1     4    1
     4     1     8    1
     5     5     6    1
     6     5     7    1
     7     5     8    1
     8     5     9    1
     9     9    10    1
    10    10    11    1
    11    11    12    1
    12    11    13    1
    13    12    21    1
    14    13    14    1
    15    13    19    1
    16    14    15    1
    17    15    16    1
    18    15    17    1
    19    15    18    1
    20    19    20    1
    21    19    21    1
    22    21    22    1
    23    22    23   ar
    24    22    31   ar
    25    23    24   ar
    26    24    25   ar
    27    25    26   ar
    28    25    31   ar
    29    26    27    1
    30    26    28   ar
    31    28    29   ar
    32    29    30   ar
    33    30    31   ar
    34    32    10    1
    35    33    10    1
    36    11    34    1
    37    13    35    1
    38    19    36    1
    39    21    37    1
    40    38    23    1
    41    39    29    1
    42    40    27    1
    43    41    27    1
    44    42    20    1
@<TRIPOS>SUBSTRUCTURE
     1 UNL1        1 TEMP              0 ****  ****    0 ROOT

########## Name:	6	2164.62  0.97242
@<TRIPOS>MOLECULE
af2_protein.mol26	
 42 44 1 0 0
SMALL
GASTEIGER


@<TRIPOS>ATOM
      1 P         -10.1428    8.2524   -0.8772 P.3     1  UNL1        0.0544
      2 O         -10.8736    7.5060    0.1668 O.co2   1  UNL1       -0.6615
      3 O         -10.8169    9.5150   -1.3334 O.co2   1  UNL1       -0.6615
      4 O          -9.6663    7.4046   -1.9948 O.co2   1  UNL1       -0.6615
      5 P          -7.5818   10.0066   -0.4048 P.3     1  UNL1        0.2491
      6 O          -8.3765   11.2010   -0.8181 O.co2   1  UNL1       -0.6337
      7 O          -6.4637    9.5611   -1.2798 O.co2   1  UNL1       -0.6337
      8 O          -8.7733    8.7949   -0.1422 O.3     1  UNL1       -0.0930
      9 O          -6.9916   10.3263    1.0784 O.3     1  UNL1       -0.2057
     10 C          -6.3164   11.5398    1.3448 C.3     1  UNL1        0.1232
     11 C          -5.1876   11.5991    0.3579 C.3     1  UNL1        0.1214
     12 O          -5.6071   12.5166   -0.6576 O.3     1  UNL1       -0.3453
     13 C          -3.8764   12.1713    0.9626 C.3     1  UNL1        0.1593
     14 O          -2.7319   11.5366    0.3229 O.3     1  UNL1       -0.2421
     15 P          -2.4670    9.8562    0.4736 P.3     1  UNL1       -0.0004
     16 O          -1.0295    9.8369    0.8421 O.co2   1  UNL1       -0.6646
     17 O          -3.4033    9.4779    1.5626 O.co2   1  UNL1       -0.6646
     18 O          -2.8355    9.2550   -0.8442 O.co2   1  UNL1       -0.6646
     19 C          -3.9900   13.6385    0.5666 C.3     1  UNL1        0.1329
     20 O          -2.6955   14.2800    0.5861 O.3     1  UNL1       -0.3845
     21 C          -4.5070   13.3894   -0.8640 C.3     1  UNL1        0.1668
     22 N          -5.0895   14.5502   -1.5741 N.ar    1  UNL1       -0.2855
     23 C          -4.5320   15.0787   -2.7115 C.ar    1  UNL1        0.1004
     24 N          -5.1739   16.1022   -3.1917 N.ar    1  UNL1       -0.2306
     25 C          -6.2768   16.2950   -2.2997 C.ar    1  UNL1        0.1473
     26 C          -7.3727   17.2598   -2.2901 C.ar    1  UNL1        0.1472
     27 N          -7.4506   18.2753   -3.1720 N.pl3   1  UNL1       -0.3413
     28 N          -8.2944   17.1449   -1.2980 N.ar    1  UNL1       -0.2188
     29 C          -8.1218   16.1729   -0.3902 C.ar    1  UNL1        0.1205
     30 N          -7.1591   15.2266   -0.2709 N.ar    1  UNL1       -0.2159
     31 C          -6.2368   15.3381   -1.2914 C.ar    1  UNL1        0.1674
     32 H          -6.9880   12.3870    1.2058 H       1  UNL1        0.0631
     33 H          -5.9250   11.5350    2.3620 H       1  UNL1        0.0631
     34 H          -5.0080   10.6138   -0.0723 H       1  UNL1        0.0650
     35 H          -3.8483   12.0498    2.0454 H       1  UNL1        0.0694
     36 H          -4.7190   14.1709    1.1774 H       1  UNL1        0.0667
     37 H          -3.7414   12.9086   -1.4730 H       1  UNL1        0.0866
     38 H          -3.6383   14.6791   -3.1677 H       1  UNL1        0.1030
     39 H          -8.8803   16.1386    0.3779 H       1  UNL1        0.1048
     40 H          -7.7155   18.0936   -4.1296 H       1  UNL1        0.1438
     41 H          -7.2440   19.2184   -2.8757 H       1  UNL1        0.1438
     42 H          -2.6814   14.9925   -0.0572 H       1  UNL1        0.2101
@<TRIPOS>BOND
     1     1     2    1
     2     1     3    1
     3     1     4    1
     4     1     8    1
     5     5     6    1
     6     5     7    1
     7     5     8    1
     8     5     9    1
     9     9    10    1
    10    10    11    1
    11    11    12    1
    12    11    13    1
    13    12    21    1
    14    13    14    1
    15    13    19    1
    16    14    15    1
    17    15    16    1
    18    15    17    1
    19    15    18    1
    20    19    20    1
    21    19    21    1
    22    21    22    1
    23    22    23   ar
    24    22    31   ar
    25    23    24   ar
    26    24    25   ar
    27    25    26   ar
    28    25    31   ar
    29    26    27    1
    30    26    28   ar
    31    28    29   ar
    32    29    30   ar
    33    30    31   ar
    34    32    10    1
    35    33    10    1
    36    11    34    1
    37    13    35    1
    38    19    36    1
    39    21    37    1
    40    38    23    1
    41    39    29    1
    42    40    27    1
    43    41    27    1
    44    42    20    1
@<TRIPOS>SUBSTRUCTURE
     1 UNL1        1 TEMP              0 ****  ****    0 ROOT

########## Name:	7	1335.51  0.965052
@<TRIPOS>MOLECULE
af2_protein.mol27	
 42 44 1 0 0
SMALL
GASTEIGER


@<TRIPOS>ATOM
      1 P          -5.3682   17.9233    3.5053 P.3     1  UNL1        0.0544
      2 O          -4.8352   18.1134    4.8694 O.co2   1  UNL1       -0.6615
      3 O          -4.4277   18.3213    2.4035 O.co2   1  UNL1       -0.6615
      4 O          -6.7418   18.4473    3.3222 O.co2   1  UNL1       -0.6615
      5 P          -5.6437   15.1672    2.0266 P.3     1  UNL1        0.2491
      6 O          -4.6482   15.6535    1.0258 O.co2   1  UNL1       -0.6337
      7 O          -7.0453   14.9410    1.5808 O.co2   1  UNL1       -0.6337
      8 O          -5.5070   16.2937    3.3186 O.3     1  UNL1       -0.0930
      9 O          -5.0560   13.7760    2.6347 O.3     1  UNL1       -0.2057
     10 C          -4.6043   12.7439    1.7803 C.3     1  UNL1        0.1232
     11 C          -5.7658   12.4221    0.8864 C.3     1  UNL1        0.1214
     12 O          -5.4750   13.0462   -0.3686 O.3     1  UNL1       -0.3453
     13 C          -5.9176   10.9023    0.6047 C.3     1  UNL1        0.1593
     14 O          -7.3291   10.5788    0.4458 O.3     1  UNL1       -0.2421
     15 P          -8.4258   10.7931    1.7373 P.3     1  UNL1       -0.0004
     16 O          -9.1317    9.4878    1.7173 O.co2   1  UNL1       -0.6646
     17 O          -7.5222   11.0048    2.8967 O.co2   1  UNL1       -0.6646
     18 O          -9.2345   12.0046    1.4023 O.co2   1  UNL1       -0.6646
     19 C          -5.1674   10.7752   -0.7156 C.3     1  UNL1        0.1329
     20 O          -5.5662    9.5801   -1.4229 O.3     1  UNL1       -0.3845
     21 C          -5.7308   12.0592   -1.3560 C.3     1  UNL1        0.1668
     22 N          -5.0374   12.5618   -2.5634 N.ar    1  UNL1       -0.2855
     23 C          -5.6429   12.6229   -3.7936 C.ar    1  UNL1        0.1004
     24 N          -4.8782   13.0813   -4.7399 N.ar    1  UNL1       -0.2306
     25 C          -3.6293   13.3618   -4.0988 C.ar    1  UNL1        0.1473
     26 C          -2.3711   13.9074   -4.5999 C.ar    1  UNL1        0.1472
     27 N          -2.1628   14.1644   -5.9059 N.pl3   1  UNL1       -0.3413
     28 N          -1.3675   14.0842   -3.7007 N.ar    1  UNL1       -0.2188
     29 C          -1.5945   13.7268   -2.4281 C.ar    1  UNL1        0.1205
     30 N          -2.6939   13.2046   -1.8325 N.ar    1  UNL1       -0.2159
     31 C          -3.7145   13.0445   -2.7476 C.ar    1  UNL1        0.1674
     32 H          -3.7532   13.0841    1.1902 H       1  UNL1        0.0631
     33 H          -4.3278   11.8672    2.3658 H       1  UNL1        0.0631
     34 H          -6.6888   12.8240    1.3046 H       1  UNL1        0.0650
     35 H          -5.4548   10.3016    1.3876 H       1  UNL1        0.0694
     36 H          -4.0874   10.8273   -0.5782 H       1  UNL1        0.0667
     37 H          -6.8012   11.9626   -1.5375 H       1  UNL1        0.0866
     38 H          -6.6651   12.3169   -3.9610 H       1  UNL1        0.1030
     39 H          -0.7570   13.8818   -1.7640 H       1  UNL1        0.1048
     40 H          -2.5987   14.9661   -6.3387 H       1  UNL1        0.1438
     41 H          -1.5708   13.5553   -6.4522 H       1  UNL1        0.1438
     42 H          -5.4749    9.7217   -2.3680 H       1  UNL1        0.2101
@<TRIPOS>BOND
     1     1     2    1
     2     1     3    1
     3     1     4    1
     4     1     8    1
     5     5     6    1
     6     5     7    1
     7     5     8    1
     8     5     9    1
     9     9    10    1
    10    10    11    1
    11    11    12    1
    12    11    13    1
    13    12    21    1
    14    13    14    1
    15    13    19    1
    16    14    15    1
    17    15    16    1
    18    15    17    1
    19    15    18    1
    20    19    20    1
    21    19    21    1
    22    21    22    1
    23    22    23   ar
    24    22    31   ar
    25    23    24   ar
    26    24    25   ar
    27    25    26   ar
    28    25    31   ar
    29    26    27    1
    30    26    28   ar
    31    28    29   ar
    32    29    30   ar
    33    30    31   ar
    34    32    10    1
    35    33    10    1
    36    11    34    1
    37    13    35    1
    38    19    36    1
    39    21    37    1
    40    38    23    1
    41    39    29    1
    42    40    27    1
    43    41    27    1
    44    42    20    1
@<TRIPOS>SUBSTRUCTURE
     1 UNL1        1 TEMP              0 ****  ****    0 ROOT

########## Name:	8	1147.67  0.972121
@<TRIPOS>MOLECULE
af2_protein.mol28	
 42 44 1 0 0
SMALL
GASTEIGER


@<TRIPOS>ATOM
      1 P          -6.2849   16.4891   -6.1681 P.3     1  UNL1        0.0544
      2 O          -6.2692   16.1463   -7.6045 O.co2   1  UNL1       -0.6615
      3 O          -7.5951   16.2369   -5.4775 O.co2   1  UNL1       -0.6615
      4 O          -5.7083   17.8197   -5.8651 O.co2   1  UNL1       -0.6615
      5 P          -4.9610   14.7967   -3.8786 P.3     1  UNL1        0.2491
      6 O          -6.3261   14.5628   -3.3210 O.co2   1  UNL1       -0.6337
      7 O          -4.0053   15.6226   -3.0918 O.co2   1  UNL1       -0.6337
      8 O          -5.2643   15.4119   -5.4554 O.3     1  UNL1       -0.0930
      9 O          -4.3008   13.3305   -4.1329 O.3     1  UNL1       -0.2057
     10 C          -4.3056   12.3462   -3.1177 C.3     1  UNL1        0.1232
     11 C          -3.6260   12.9786   -1.9388 C.3     1  UNL1        0.1214
     12 O          -4.6749   13.3458   -1.0365 O.3     1  UNL1       -0.3453
     13 C          -2.6984   11.9986   -1.1698 C.3     1  UNL1        0.1593
     14 O          -1.5703   12.7352   -0.6158 O.3     1  UNL1       -0.2421
     15 P          -0.4531   13.5230   -1.6395 P.3     1  UNL1       -0.0004
     16 O           0.8294   13.0528   -1.0596 O.co2   1  UNL1       -0.6646
     17 O          -0.7864   12.9623   -2.9737 O.co2   1  UNL1       -0.6646
     18 O          -0.7478   14.9845   -1.5336 O.co2   1  UNL1       -0.6646
     19 C          -3.6363   11.5122   -0.0716 C.3     1  UNL1        0.1329
     20 O          -2.8908   10.9738    1.0428 O.3     1  UNL1       -0.3845
     21 C          -4.2603   12.8866    0.2409 C.3     1  UNL1        0.1668
     22 N          -5.4999   12.8878    1.0499 N.ar    1  UNL1       -0.2855
     23 C          -5.5681   13.4511    2.2996 C.ar    1  UNL1        0.1004
     24 N          -6.7341   13.3488    2.8654 N.ar    1  UNL1       -0.2306
     25 C          -7.5434   12.6491    1.9143 C.ar    1  UNL1        0.1473
     26 C          -8.9438   12.2362    1.9343 C.ar    1  UNL1        0.1472
     27 N          -9.7302   12.3965    3.0164 N.pl3   1  UNL1       -0.3413
     28 N          -9.4223   11.6049    0.8299 N.ar    1  UNL1       -0.2188
     29 C          -8.5741   11.3872   -0.1858 C.ar    1  UNL1        0.1205
     30 N          -7.2642   11.7010   -0.3349 N.ar    1  UNL1       -0.2159
     31 C          -6.7899   12.3574    0.7825 C.ar    1  UNL1        0.1674
     32 H          -5.3282   12.0679   -2.8629 H       1  UNL1        0.0631
     33 H          -3.7487   11.4682   -3.4447 H       1  UNL1        0.0631
     34 H          -3.0685   13.8616   -2.2513 H       1  UNL1        0.0650
     35 H          -2.3672   11.1780   -1.8061 H       1  UNL1        0.0694
     36 H          -4.3746   10.8047   -0.4491 H       1  UNL1        0.0667
     37 H          -3.5179   13.5590    0.6708 H       1  UNL1        0.0866
     38 H          -4.7268   13.9368    2.7715 H       1  UNL1        0.1030
     39 H          -9.0098   10.8734   -1.0299 H       1  UNL1        0.1048
     40 H         -10.0730   13.3147    3.2603 H       1  UNL1        0.1438
     41 H          -9.9768   11.5983    3.5840 H       1  UNL1        0.1438
     42 H          -3.3911   11.0977    1.8527 H       1  UNL1        0.2101
@<TRIPOS>BOND
     1     1     2    1
     2     1     3    1
     3     1     4    1
     4     1     8    1
     5     5     6    1
     6     5     7    1
     7     5     8    1
     8     5     9    1
     9     9    10    1
    10    10    11    1
    11    11    12    1
    12    11    13    1
    13    12    21    1
    14    13    14    1
    15    13    19    1
    16    14    15    1
    17    15    16    1
    18    15    17    1
    19    15    18    1
    20    19    20    1
    21    19    21    1
    22    21    22    1
    23    22    23   ar
    24    22    31   ar
    25    23    24   ar
    26    24    25   ar
    27    25    26   ar
    28    25    31   ar
    29    26    27    1
    30    26    28   ar
    31    28    29   ar
    32    29    30   ar
    33    30    31   ar
    34    32    10    1
    35    33    10    1
    36    11    34    1
    37    13    35    1
    38    19    36    1
    39    21    37    1
    40    38    23    1
    41    39    29    1
    42    40    27    1
    43    41    27    1
    44    42    20    1
@<TRIPOS>SUBSTRUCTURE
     1 UNL1        1 TEMP              0 ****  ****    0 ROOT

########## Name:	9	405.832  0.963969
@<TRIPOS>MOLECULE
af2_protein.mol29	
 42 44 1 0 0
SMALL
GASTEIGER


@<TRIPOS>ATOM
      1 P         -10.7421   16.4395   -3.3834 P.3     1  UNL1        0.0544
      2 O         -12.1723   16.3465   -3.0271 O.co2   1  UNL1       -0.6615
      3 O          -9.9324   17.3424   -2.4969 O.co2   1  UNL1       -0.6615
      4 O         -10.4997   16.6636   -4.8277 O.co2   1  UNL1       -0.6615
      5 P          -8.5770   14.2386   -2.8111 P.3     1  UNL1        0.2491
      6 O          -7.8947   15.2074   -1.9027 O.co2   1  UNL1       -0.6337
      7 O          -7.8856   13.8345   -4.0653 O.co2   1  UNL1       -0.6337
      8 O         -10.1219   14.9460   -3.0756 O.3     1  UNL1       -0.0930
      9 O          -8.8847   12.9054   -1.9290 O.3     1  UNL1       -0.2057
     10 C          -7.8690   12.2952   -1.1574 C.3     1  UNL1        0.1232
     11 C          -6.7607   11.9860   -2.1206 C.3     1  UNL1        0.1214
     12 O          -5.7671   12.9940   -1.9063 O.3     1  UNL1       -0.3453
     13 C          -6.0762   10.6190   -1.8466 C.3     1  UNL1        0.1593
     14 O          -5.6321   10.0396   -3.1071 O.3     1  UNL1       -0.2421
     15 P          -6.7581    9.6155   -4.3191 P.3     1  UNL1       -0.0004
     16 O          -6.2970    8.2454   -4.6548 O.co2   1  UNL1       -0.6646
     17 O          -8.0533    9.6867   -3.5959 O.co2   1  UNL1       -0.6646
     18 O          -6.6320   10.6524   -5.3881 O.co2   1  UNL1       -0.6646
     19 C          -4.8940   11.0529   -0.9885 C.3     1  UNL1        0.1329
     20 O          -3.8507   10.0534   -1.0039 O.3     1  UNL1       -0.3845
     21 C          -4.5314   12.3014   -1.8167 C.3     1  UNL1        0.1668
     22 N          -3.6113   13.2752   -1.1870 N.ar    1  UNL1       -0.2855
     23 C          -2.3632   13.5466   -1.6893 C.ar    1  UNL1        0.1004
     24 N          -1.6917   14.4206   -0.9999 N.ar    1  UNL1       -0.2306
     25 C          -2.5609   14.7841    0.0779 C.ar    1  UNL1        0.1473
     26 C          -2.4098   15.7246    1.1845 C.ar    1  UNL1        0.1472
     27 N          -1.2604   16.3870    1.4195 N.pl3   1  UNL1       -0.3413
     28 N          -3.4624   15.8611    2.0334 N.ar    1  UNL1       -0.2188
     29 C          -4.5511   15.1107    1.8092 C.ar    1  UNL1        0.1205
     30 N          -4.8220   14.2012    0.8418 N.ar    1  UNL1       -0.2159
     31 C          -3.7561   14.0810   -0.0265 C.ar    1  UNL1        0.1674
     32 H          -7.5196   12.9767   -0.3817 H       1  UNL1        0.0631
     33 H          -8.2420   11.3752   -0.7076 H       1  UNL1        0.0631
     34 H          -7.1273   12.0274   -3.1463 H       1  UNL1        0.0650
     35 H          -6.7367    9.9418   -1.3052 H       1  UNL1        0.0694
     36 H          -5.1984   11.3100    0.0260 H       1  UNL1        0.0667
     37 H          -4.1748   12.0178   -2.8069 H       1  UNL1        0.0866
     38 H          -1.9732   13.0753   -2.5794 H       1  UNL1        0.1030
     39 H          -5.3490   15.2563    2.5223 H       1  UNL1        0.1048
     40 H          -0.9901   17.1567    0.8241 H       1  UNL1        0.1438
     41 H          -0.6689   16.1137    2.1912 H       1  UNL1        0.1438
     42 H          -2.9986   10.4778   -0.8793 H       1  UNL1        0.2101
@<TRIPOS>BOND
     1     1     2    1
     2     1     3    1
     3     1     4    1
     4     1     8    1
     5     5     6    1
     6     5     7    1
     7     5     8    1
     8     5     9    1
     9     9    10    1
    10    10    11    1
    11    11    12    1
    12    11    13    1
    13    12    21    1
    14    13    14    1
    15    13    19    1
    16    14    15    1
    17    15    16    1
    18    15    17    1
    19    15    18    1
    20    19    20    1
    21    19    21    1
    22    21    22    1
    23    22    23   ar
    24    22    31   ar
    25    23    24   ar
    26    24    25   ar
    27    25    26   ar
    28    25    31   ar
    29    26    27    1
    30    26    28   ar
    31    28    29   ar
    32    29    30   ar
    33    30    31   ar
    34    32    10    1
    35    33    10    1
    36    11    34    1
    37    13    35    1
    38    19    36    1
    39    21    37    1
    40    38    23    1
    41    39    29    1
    42    40    27    1
    43    41    27    1
    44    42    20    1
@<TRIPOS>SUBSTRUCTURE
     1 UNL1        1 TEMP              0 ****  ****    0 ROOT

########## Name:	10	1400.28  0.966897
@<TRIPOS>MOLECULE
af2_protein.mol210	
 42 44 1 0 0
SMALL
GASTEIGER


@<TRIPOS>ATOM
      1 P          -7.9200   18.8661   -0.0116 P.3     1  UNL1        0.0544
      2 O          -9.2227   19.4654   -0.3649 O.co2   1  UNL1       -0.6615
      3 O          -7.9203   18.0717    1.2635 O.co2   1  UNL1       -0.6615
      4 O          -6.7812   19.8079   -0.1161 O.co2   1  UNL1       -0.6615
      5 P          -6.6512   16.3369   -1.3727 P.3     1  UNL1        0.2491
      6 O          -6.7621   15.6296   -0.0625 O.co2   1  UNL1       -0.6337
      7 O          -5.2941   16.6424   -1.9012 O.co2   1  UNL1       -0.6337
      8 O          -7.6387   17.7299   -1.1691 O.3     1  UNL1       -0.0930
      9 O          -7.4470   15.4289   -2.4647 O.3     1  UNL1       -0.2057
     10 C          -7.1933   14.0425   -2.5789 C.3     1  UNL1        0.1232
     11 C          -5.7204   13.9215   -2.8388 C.3     1  UNL1        0.1214
     12 O          -5.1377   13.5219   -1.5939 O.3     1  UNL1       -0.3453
     13 C          -5.3707   12.8149   -3.8710 C.3     1  UNL1        0.1593
     14 O          -4.1911   13.2142   -4.6267 O.3     1  UNL1       -0.2421
     15 P          -4.2176   14.6039   -5.6190 P.3     1  UNL1       -0.0004
     16 O          -3.6287   14.0606   -6.8681 O.co2   1  UNL1       -0.6646
     17 O          -5.6665   14.9224   -5.6901 O.co2   1  UNL1       -0.6646
     18 O          -3.4282   15.6479   -4.8973 O.co2   1  UNL1       -0.6646
     19 C          -5.0668   11.6416   -2.9473 C.3     1  UNL1        0.1329
     20 O          -4.2625   10.6486   -3.6217 O.3     1  UNL1       -0.3845
     21 C          -4.2645   12.4475   -1.9065 C.3     1  UNL1        0.1668
     22 N          -4.0127   11.7903   -0.6042 N.ar    1  UNL1       -0.2855
     23 C          -2.7514   11.4698   -0.1682 C.ar    1  UNL1        0.1004
     24 N          -2.7231   10.8881    0.9943 N.ar    1  UNL1       -0.2306
     25 C          -4.0947   10.8011    1.3945 C.ar    1  UNL1        0.1473
     26 C          -4.7335   10.2726    2.5964 C.ar    1  UNL1        0.1472
     27 N          -4.0429    9.6379    3.5635 N.pl3   1  UNL1       -0.3413
     28 N          -6.0860   10.3770    2.6796 N.ar    1  UNL1       -0.2188
     29 C          -6.7372   10.9350    1.6485 C.ar    1  UNL1        0.1205
     30 N          -6.2810   11.4512    0.4815 N.ar    1  UNL1       -0.2159
     31 C          -4.9058   11.3580    0.4117 C.ar    1  UNL1        0.1674
     32 H          -7.4597   13.5299   -1.6546 H       1  UNL1        0.0631
     33 H          -7.7567   13.6263   -3.4140 H       1  UNL1        0.0631
     34 H          -5.3117   14.8803   -3.1582 H       1  UNL1        0.0650
     35 H          -6.2132   12.5994   -4.5281 H       1  UNL1        0.0694
     36 H          -5.9733   11.2122   -2.5209 H       1  UNL1        0.0667
     37 H          -3.3349   12.8182   -2.3382 H       1  UNL1        0.0866
     38 H          -1.8604   11.6822   -0.7405 H       1  UNL1        0.1030
     39 H          -7.8095   10.9807    1.7689 H       1  UNL1        0.1048
     40 H          -3.4569   10.1652    4.1948 H       1  UNL1        0.1438
     41 H          -4.1110    8.6345    3.6571 H       1  UNL1        0.1438
     42 H          -3.7165   10.1888   -2.9798 H       1  UNL1        0.2101
@<TRIPOS>BOND
     1     1     2    1
     2     1     3    1
     3     1     4    1
     4     1     8    1
     5     5     6    1
     6     5     7    1
     7     5     8    1
     8     5     9    1
     9     9    10    1
    10    10    11    1
    11    11    12    1
    12    11    13    1
    13    12    21    1
    14    13    14    1
    15    13    19    1
    16    14    15    1
    17    15    16    1
    18    15    17    1
    19    15    18    1
    20    19    20    1
    21    19    21    1
    22    21    22    1
    23    22    23   ar
    24    22    31   ar
    25    23    24   ar
    26    24    25   ar
    27    25    26   ar
    28    25    31   ar
    29    26    27    1
    30    26    28   ar
    31    28    29   ar
    32    29    30   ar
    33    30    31   ar
    34    32    10    1
    35    33    10    1
    36    11    34    1
    37    13    35    1
    38    19    36    1
    39    21    37    1
    40    38    23    1
    41    39    29    1
    42    40    27    1
    43    41    27    1
    44    42    20    1
@<TRIPOS>SUBSTRUCTURE
     1 UNL1        1 TEMP              0 ****  ****    0 ROOT

########## Name:	11	375.095  0.965954
@<TRIPOS>MOLECULE
af2_protein.mol211	
 42 44 1 0 0
SMALL
GASTEIGER


@<TRIPOS>ATOM
      1 P          -2.9613   14.2197    5.2067 P.3     1  UNL1        0.0544
      2 O          -3.6344   14.2386    6.5210 O.co2   1  UNL1       -0.6615
      3 O          -2.4564   12.8706    4.7800 O.co2   1  UNL1       -0.6615
      4 O          -1.9652   15.3020    5.0301 O.co2   1  UNL1       -0.6615
      5 P          -4.4036   14.3582    2.4211 P.3     1  UNL1        0.2491
      6 O          -3.8938   12.9839    2.1373 O.co2   1  UNL1       -0.6337
      7 O          -3.8820   15.4903    1.6083 O.co2   1  UNL1       -0.6337
      8 O          -4.1444   14.5486    4.1103 O.3     1  UNL1       -0.0930
      9 O          -6.0227   14.3001    2.2610 O.3     1  UNL1       -0.2057
     10 C          -6.6185   13.7325    1.1112 C.3     1  UNL1        0.1232
     11 C          -6.0496   14.4884   -0.0535 C.3     1  UNL1        0.1214
     12 O          -5.0599   13.6289   -0.6287 O.3     1  UNL1       -0.3453
     13 C          -7.0947   14.7733   -1.1666 C.3     1  UNL1        0.1593
     14 O          -6.7827   16.0429   -1.8090 O.3     1  UNL1       -0.2421
     15 P          -6.8253   17.5037   -0.9252 P.3     1  UNL1       -0.0004
     16 O          -7.6231   18.3558   -1.8417 O.co2   1  UNL1       -0.6646
     17 O          -7.5163   17.1035    0.3270 O.co2   1  UNL1       -0.6646
     18 O          -5.4013   17.8989   -0.7020 O.co2   1  UNL1       -0.6646
     19 C          -6.8453   13.6000   -2.1065 C.3     1  UNL1        0.1329
     20 O          -7.3409   13.8870   -3.4330 O.3     1  UNL1       -0.3845
     21 C          -5.3065   13.6417   -2.0264 C.3     1  UNL1        0.1668
     22 N          -4.5799   12.4572   -2.5366 N.ar    1  UNL1       -0.2855
     23 C          -3.7404   12.5136   -3.6209 C.ar    1  UNL1        0.1004
     24 N          -3.1971   11.3742   -3.9320 N.ar    1  UNL1       -0.2306
     25 C          -3.7120   10.4474   -2.9701 C.ar    1  UNL1        0.1473
     26 C          -3.4811    9.0208   -2.7624 C.ar    1  UNL1        0.1472
     27 N          -2.7355    8.2782   -3.6036 N.pl3   1  UNL1       -0.3413
     28 N          -4.1140    8.4344   -1.7123 N.ar    1  UNL1       -0.2188
     29 C          -4.9186    9.1978   -0.9583 C.ar    1  UNL1        0.1205
     30 N          -5.2310   10.5138   -1.0404 N.ar    1  UNL1       -0.2159
     31 C          -4.5711   11.1066   -2.0976 C.ar    1  UNL1        0.1674
     32 H          -6.3682   12.6742    1.0365 H       1  UNL1        0.0631
     33 H          -7.7003   13.8599    1.1483 H       1  UNL1        0.0631
     34 H          -5.5932   15.4187    0.2847 H       1  UNL1        0.0650
     35 H          -8.1114   14.7625   -0.7737 H       1  UNL1        0.0694
     36 H          -7.2497   12.6679   -1.7121 H       1  UNL1        0.0667
     37 H          -4.9208   14.5555   -2.4784 H       1  UNL1        0.0866
     38 H          -3.5480   13.4249   -4.1679 H       1  UNL1        0.1030
     39 H          -5.4003    8.6735   -0.1462 H       1  UNL1        0.1048
     40 H          -1.7295    8.3675   -3.5998 H       1  UNL1        0.1438
     41 H          -3.1827    7.6324   -4.2384 H       1  UNL1        0.1438
     42 H          -6.8163   13.4109   -4.0809 H       1  UNL1        0.2101
@<TRIPOS>BOND
     1     1     2    1
     2     1     3    1
     3     1     4    1
     4     1     8    1
     5     5     6    1
     6     5     7    1
     7     5     8    1
     8     5     9    1
     9     9    10    1
    10    10    11    1
    11    11    12    1
    12    11    13    1
    13    12    21    1
    14    13    14    1
    15    13    19    1
    16    14    15    1
    17    15    16    1
    18    15    17    1
    19    15    18    1
    20    19    20    1
    21    19    21    1
    22    21    22    1
    23    22    23   ar
    24    22    31   ar
    25    23    24   ar
    26    24    25   ar
    27    25    26   ar
    28    25    31   ar
    29    26    27    1
    30    26    28   ar
    31    28    29   ar
    32    29    30   ar
    33    30    31   ar
    34    32    10    1
    35    33    10    1
    36    11    34    1
    37    13    35    1
    38    19    36    1
    39    21    37    1
    40    38    23    1
    41    39    29    1
    42    40    27    1
    43    41    27    1
    44    42    20    1
@<TRIPOS>SUBSTRUCTURE
     1 UNL1        1 TEMP              0 ****  ****    0 ROOT

########## Name:	12	681.915  0.964846
@<TRIPOS>MOLECULE
af2_protein.mol212	
 42 44 1 0 0
SMALL
GASTEIGER


@<TRIPOS>ATOM
      1 P         -12.0468   11.0249   -3.2579 P.3     1  UNL1        0.0544
      2 O         -13.0262   10.0716   -2.6984 O.co2   1  UNL1       -0.6615
      3 O         -12.1284   12.4135   -2.6902 O.co2   1  UNL1       -0.6615
      4 O         -11.9660   10.9993   -4.7370 O.co2   1  UNL1       -0.6615
      5 P          -8.9879   11.1143   -2.5549 P.3     1  UNL1        0.2491
      6 O          -9.2078   12.4667   -1.9620 O.co2   1  UNL1       -0.6337
      7 O          -8.1567   11.0053   -3.7844 O.co2   1  UNL1       -0.6337
      8 O         -10.5782   10.4879   -2.7432 O.3     1  UNL1       -0.0930
      9 O          -8.3224   10.1935   -1.3888 O.3     1  UNL1       -0.2057
     10 C          -7.2017   10.6481   -0.6561 C.3     1  UNL1        0.1232
     11 C          -6.1490   10.9586   -1.6794 C.3     1  UNL1        0.1214
     12 O          -6.1424   12.3840   -1.8100 O.3     1  UNL1       -0.3453
     13 C          -4.7205   10.5447   -1.2317 C.3     1  UNL1        0.1593
     14 O          -3.9453   10.1446   -2.3983 O.3     1  UNL1       -0.2421
     15 P          -4.4092    8.7939   -3.3349 P.3     1  UNL1       -0.0004
     16 O          -3.1132    8.0798   -3.4474 O.co2   1  UNL1       -0.6646
     17 O          -5.4211    8.1340   -2.4710 O.co2   1  UNL1       -0.6646
     18 O          -4.9918    9.3412   -4.5978 O.co2   1  UNL1       -0.6646
     19 C          -4.2078   11.8557   -0.6480 C.3     1  UNL1        0.1329
     20 O          -2.7636   11.8712   -0.6040 O.3     1  UNL1       -0.3845
     21 C          -4.7773   12.7682   -1.7522 C.3     1  UNL1        0.1668
     22 N          -4.8177   14.2194   -1.4630 N.ar    1  UNL1       -0.2855
     23 C          -4.0867   15.1371   -2.1752 C.ar    1  UNL1        0.1004
     24 N          -4.2393   16.3643   -1.7741 N.ar    1  UNL1       -0.2306
     25 C          -5.1626   16.2817   -0.6833 C.ar    1  UNL1        0.1473
     26 C          -5.7535   17.3002    0.1801 C.ar    1  UNL1        0.1472
     27 N          -5.3961   18.5977    0.1179 N.pl3   1  UNL1       -0.3413
     28 N          -6.6415   16.8809    1.1196 N.ar    1  UNL1       -0.2188
     29 C          -6.8947   15.5664    1.2018 C.ar    1  UNL1        0.1205
     30 N          -6.4174   14.5211    0.4835 N.ar    1  UNL1       -0.2159
     31 C          -5.5302   14.9560   -0.4799 C.ar    1  UNL1        0.1674
     32 H          -7.4562   11.5433   -0.0886 H       1  UNL1        0.0631
     33 H          -6.8514    9.8651    0.0164 H       1  UNL1        0.0631
     34 H          -6.3974   10.4918   -2.6326 H       1  UNL1        0.0650
     35 H          -4.7491    9.7559   -0.4801 H       1  UNL1        0.0694
     36 H          -4.6484   12.0691    0.3258 H       1  UNL1        0.0667
     37 H          -4.2818   12.5777   -2.7042 H       1  UNL1        0.0866
     38 H          -3.4412   14.8636   -2.9969 H       1  UNL1        0.1030
     39 H          -7.6001   15.2943    1.9730 H       1  UNL1        0.1048
     40 H          -5.7099   19.1718   -0.6516 H       1  UNL1        0.1438
     41 H          -4.8142   18.9964    0.8407 H       1  UNL1        0.1438
     42 H          -2.4504   12.7751   -0.6848 H       1  UNL1        0.2101
@<TRIPOS>BOND
     1     1     2    1
     2     1     3    1
     3     1     4    1
     4     1     8    1
     5     5     6    1
     6     5     7    1
     7     5     8    1
     8     5     9    1
     9     9    10    1
    10    10    11    1
    11    11    12    1
    12    11    13    1
    13    12    21    1
    14    13    14    1
    15    13    19    1
    16    14    15    1
    17    15    16    1
    18    15    17    1
    19    15    18    1
    20    19    20    1
    21    19    21    1
    22    21    22    1
    23    22    23   ar
    24    22    31   ar
    25    23    24   ar
    26    24    25   ar
    27    25    26   ar
    28    25    31   ar
    29    26    27    1
    30    26    28   ar
    31    28    29   ar
    32    29    30   ar
    33    30    31   ar
    34    32    10    1
    35    33    10    1
    36    11    34    1
    37    13    35    1
    38    19    36    1
    39    21    37    1
    40    38    23    1
    41    39    29    1
    42    40    27    1
    43    41    27    1
    44    42    20    1
@<TRIPOS>SUBSTRUCTURE
     1 UNL1        1 TEMP              0 ****  ****    0 ROOT

########## Name:	13	1302.01  0.967242
@<TRIPOS>MOLECULE
af2_protein.mol213	
 42 44 1 0 0
SMALL
GASTEIGER


@<TRIPOS>ATOM
      1 P          -4.1882   17.3836    1.0120 P.3     1  UNL1        0.0544
      2 O          -3.2624   18.4774    0.6552 O.co2   1  UNL1       -0.6615
      3 O          -5.5596   17.5012    0.4099 O.co2   1  UNL1       -0.6615
      4 O          -4.2078   17.0658    2.4589 O.co2   1  UNL1       -0.6615
      5 P          -4.1155   14.4776   -0.1748 P.3     1  UNL1        0.2491
      6 O          -5.4563   14.7370   -0.7783 O.co2   1  UNL1       -0.6337
      7 O          -4.0097   13.4634    0.9090 O.co2   1  UNL1       -0.6337
      8 O          -3.5685   16.0400    0.2906 O.3     1  UNL1       -0.0930
      9 O          -3.1276   14.0463   -1.3948 O.3     1  UNL1       -0.2057
     10 C          -3.5064   13.0419   -2.3151 C.3     1  UNL1        0.1232
     11 C          -3.8025   11.8261   -1.4869 C.3     1  UNL1        0.1214
     12 O          -5.2297   11.7423   -1.4160 O.3     1  UNL1       -0.3453
     13 C          -3.3097   10.5063   -2.1407 C.3     1  UNL1        0.1593
     14 O          -2.9136    9.5690   -1.0983 O.3     1  UNL1       -0.2421
     15 P          -1.6170    9.9282   -0.0464 P.3     1  UNL1       -0.0004
     16 O          -0.8489    8.6602   -0.1145 O.co2   1  UNL1       -0.6646
     17 O          -0.9755   11.0917   -0.7100 O.co2   1  UNL1       -0.6646
     18 O          -2.2315   10.2768    1.2707 O.co2   1  UNL1       -0.6646
     19 C          -4.5761   10.0434   -2.8508 C.3     1  UNL1        0.1329
     20 O          -4.5247    8.6259   -3.1262 O.3     1  UNL1       -0.3845
     21 C          -5.5494   10.3904   -1.7069 C.3     1  UNL1        0.1668
     22 N          -6.9906   10.4198   -2.0435 N.ar    1  UNL1       -0.2855
     23 C          -7.8972    9.5476   -1.4949 C.ar    1  UNL1        0.1004
     24 N          -9.1162    9.7145   -1.9149 N.ar    1  UNL1       -0.2306
     25 C          -9.0396   10.8047   -2.8396 C.ar    1  UNL1        0.1473
     26 C         -10.0548   11.4867   -3.6371 C.ar    1  UNL1        0.1472
     27 N         -11.3361   11.0732   -3.6847 N.pl3   1  UNL1       -0.3413
     28 N          -9.6454   12.5309   -4.4047 N.ar    1  UNL1       -0.2188
     29 C          -8.3417   12.8456   -4.3928 C.ar    1  UNL1        0.1205
     30 N          -7.3001   12.3001   -3.7192 N.ar    1  UNL1       -0.2159
     31 C          -7.7260   11.2523   -2.9284 C.ar    1  UNL1        0.1674
     32 H          -4.3930   13.3493   -2.8697 H       1  UNL1        0.0631
     33 H          -2.6866   12.8360   -3.0032 H       1  UNL1        0.0631
     34 H          -3.3792   11.9353   -0.4883 H       1  UNL1        0.0650
     35 H          -2.4986   10.6871   -2.8460 H       1  UNL1        0.0694
     36 H          -4.7770   10.6270   -3.7492 H       1  UNL1        0.0667
     37 H          -5.3683    9.7553   -0.8397 H       1  UNL1        0.0866
     38 H          -7.6221    8.7891   -0.7769 H       1  UNL1        0.1030
     39 H          -8.0766   13.6766   -5.0296 H       1  UNL1        0.1048
     40 H         -11.9489   11.2355   -2.8985 H       1  UNL1        0.1438
     41 H         -11.6839   10.6006   -4.5068 H       1  UNL1        0.1438
     42 H          -5.4156    8.2683   -3.1326 H       1  UNL1        0.2101
@<TRIPOS>BOND
     1     1     2    1
     2     1     3    1
     3     1     4    1
     4     1     8    1
     5     5     6    1
     6     5     7    1
     7     5     8    1
     8     5     9    1
     9     9    10    1
    10    10    11    1
    11    11    12    1
    12    11    13    1
    13    12    21    1
    14    13    14    1
    15    13    19    1
    16    14    15    1
    17    15    16    1
    18    15    17    1
    19    15    18    1
    20    19    20    1
    21    19    21    1
    22    21    22    1
    23    22    23   ar
    24    22    31   ar
    25    23    24   ar
    26    24    25   ar
    27    25    26   ar
    28    25    31   ar
    29    26    27    1
    30    26    28   ar
    31    28    29   ar
    32    29    30   ar
    33    30    31   ar
    34    32    10    1
    35    33    10    1
    36    11    34    1
    37    13    35    1
    38    19    36    1
    39    21    37    1
    40    38    23    1
    41    39    29    1
    42    40    27    1
    43    41    27    1
    44    42    20    1
@<TRIPOS>SUBSTRUCTURE
     1 UNL1        1 TEMP              0 ****  ****    0 ROOT

########## Name:	14	986.137  0.96279
@<TRIPOS>MOLECULE
af2_protein.mol214	
 42 44 1 0 0
SMALL
GASTEIGER


@<TRIPOS>ATOM
      1 P          -5.7661   16.8394    3.8006 P.3     1  UNL1        0.0544
      2 O          -6.1543   16.6361    5.2109 O.co2   1  UNL1       -0.6615
      3 O          -4.2898   16.7490    3.5373 O.co2   1  UNL1       -0.6615
      4 O          -6.4038   18.0182    3.1695 O.co2   1  UNL1       -0.6615
      5 P          -6.1209   14.7384    1.4943 P.3     1  UNL1        0.2491
      6 O          -4.6339   14.6879    1.3701 O.co2   1  UNL1       -0.6337
      7 O          -6.9077   15.3122    0.3691 O.co2   1  UNL1       -0.6337
      8 O          -6.3780   15.5422    2.9925 O.3     1  UNL1       -0.0930
      9 O          -6.6214   13.2121    1.7593 O.3     1  UNL1       -0.2057
     10 C          -6.1868   12.1515    0.9313 C.3     1  UNL1        0.1232
     11 C          -6.5714   12.5453   -0.4647 C.3     1  UNL1        0.1214
     12 O          -5.3645   12.9983   -1.0871 O.3     1  UNL1       -0.3453
     13 C          -7.0919   11.3540   -1.3144 C.3     1  UNL1        0.1593
     14 O          -8.0979   11.8329   -2.2529 O.3     1  UNL1       -0.2421
     15 P          -9.5614   12.5129   -1.6941 P.3     1  UNL1       -0.0004
     16 O         -10.5424   11.7792   -2.5319 O.co2   1  UNL1       -0.6646
     17 O          -9.5598   12.1453   -0.2552 O.co2   1  UNL1       -0.6646
     18 O          -9.4497   13.9865   -1.9173 O.co2   1  UNL1       -0.6646
     19 C          -5.8172   10.9322   -2.0350 C.3     1  UNL1        0.1329
     20 O          -6.1243   10.1724   -3.2250 O.3     1  UNL1       -0.3845
     21 C          -5.3215   12.3569   -2.3525 C.3     1  UNL1        0.1668
     22 N          -3.9117   12.4919   -2.7831 N.ar    1  UNL1       -0.2855
     23 C          -3.5583   12.9381   -4.0320 C.ar    1  UNL1        0.1004
     24 N          -2.2752   12.9821   -4.2370 N.ar    1  UNL1       -0.2306
     25 C          -1.6921   12.5228   -3.0129 C.ar    1  UNL1        0.1473
     26 C          -0.3046   12.3535   -2.5910 C.ar    1  UNL1        0.1472
     27 N           0.7344   12.5419   -3.4278 N.pl3   1  UNL1       -0.3413
     28 N          -0.0887   11.9196   -1.3213 N.ar    1  UNL1       -0.2188
     29 C          -1.1590   11.6581   -0.5567 C.ar    1  UNL1        0.1205
     30 N          -2.4852   11.7578   -0.8171 N.ar    1  UNL1       -0.2159
     31 C          -2.6967   12.2157   -2.1017 C.ar    1  UNL1        0.1674
     32 H          -5.1065   12.0279    1.0076 H       1  UNL1        0.0631
     33 H          -6.6905   11.2266    1.2120 H       1  UNL1        0.0631
     34 H          -7.3102   13.3465   -0.4427 H       1  UNL1        0.0650
     35 H          -7.4801   10.5529   -0.6855 H       1  UNL1        0.0694
     36 H          -5.1326   10.3991   -1.3753 H       1  UNL1        0.0667
     37 H          -5.9898   12.8499   -3.0584 H       1  UNL1        0.0866
     38 H          -4.2827   13.2273   -4.7791 H       1  UNL1        0.1030
     39 H          -0.9235   11.3076    0.4373 H       1  UNL1        0.1048
     40 H           1.0056   13.4778   -3.6936 H       1  UNL1        0.1438
     41 H           1.2420   11.7472   -3.7894 H       1  UNL1        0.1438
     42 H          -5.4307   10.3023   -3.8759 H       1  UNL1        0.2101
@<TRIPOS>BOND
     1     1     2    1
     2     1     3    1
     3     1     4    1
     4     1     8    1
     5     5     6    1
     6     5     7    1
     7     5     8    1
     8     5     9    1
     9     9    10    1
    10    10    11    1
    11    11    12    1
    12    11    13    1
    13    12    21    1
    14    13    14    1
    15    13    19    1
    16    14    15    1
    17    15    16    1
    18    15    17    1
    19    15    18    1
    20    19    20    1
    21    19    21    1
    22    21    22    1
    23    22    23   ar
    24    22    31   ar
    25    23    24   ar
    26    24    25   ar
    27    25    26   ar
    28    25    31   ar
    29    26    27    1
    30    26    28   ar
    31    28    29   ar
    32    29    30   ar
    33    30    31   ar
    34    32    10    1
    35    33    10    1
    36    11    34    1
    37    13    35    1
    38    19    36    1
    39    21    37    1
    40    38    23    1
    41    39    29    1
    42    40    27    1
    43    41    27    1
    44    42    20    1
@<TRIPOS>SUBSTRUCTURE
     1 UNL1        1 TEMP              0 ****  ****    0 ROOT

########## Name:	15	956.932  0.970829
@<TRIPOS>MOLECULE
af2_protein.mol215	
 42 44 1 0 0
SMALL
GASTEIGER


@<TRIPOS>ATOM
      1 P          -8.3738   18.3136    0.2599 P.3     1  UNL1        0.0544
      2 O          -8.6493   19.5468   -0.5044 O.co2   1  UNL1       -0.6615
      3 O          -9.4563   17.2746    0.1855 O.co2   1  UNL1       -0.6615
      4 O          -7.8911   18.5607    1.6386 O.co2   1  UNL1       -0.6615
      5 P          -6.3864   16.0420   -0.6054 P.3     1  UNL1        0.2491
      6 O          -7.5545   15.1174   -0.7049 O.co2   1  UNL1       -0.6337
      7 O          -5.3717   15.7915    0.4539 O.co2   1  UNL1       -0.6337
      8 O          -7.1066   17.6006   -0.5121 O.3     1  UNL1       -0.0930
      9 O          -5.6466   16.0207   -2.0554 O.3     1  UNL1       -0.2057
     10 C          -5.3127   14.7980   -2.6821 C.3     1  UNL1        0.1232
     11 C          -4.4546   14.0602   -1.6967 C.3     1  UNL1        0.1214
     12 O          -5.3032   13.0691   -1.1080 O.3     1  UNL1       -0.3453
     13 C          -3.2751   13.2998   -2.3623 C.3     1  UNL1        0.1593
     14 O          -2.1371   13.2820   -1.4531 O.3     1  UNL1       -0.2421
     15 P          -1.3755   14.7347   -0.9774 P.3     1  UNL1       -0.0004
     16 O           0.0489   14.3846   -1.2034 O.co2   1  UNL1       -0.6646
     17 O          -1.9418   15.7233   -1.9300 O.co2   1  UNL1       -0.6646
     18 O          -1.7949   14.9833    0.4355 O.co2   1  UNL1       -0.6646
     19 C          -3.8790   11.9098   -2.5222 C.3     1  UNL1        0.1329
     20 O          -2.8448   10.9115   -2.6683 O.3     1  UNL1       -0.3845
     21 C          -4.5605   11.8600   -1.1405 C.3     1  UNL1        0.1668
     22 N          -5.5752   10.8020   -0.9352 N.ar    1  UNL1       -0.2855
     23 C          -5.4170    9.7917   -0.0198 C.ar    1  UNL1        0.1004
     24 N          -6.4048    8.9471    0.0153 N.ar    1  UNL1       -0.2306
     25 C          -7.3291    9.4225   -0.9690 C.ar    1  UNL1        0.1473
     26 C          -8.6346    8.9346   -1.4043 C.ar    1  UNL1        0.1472
     27 N          -9.1657    7.7834   -0.9485 N.pl3   1  UNL1       -0.3413
     28 N          -9.2813    9.6540   -2.3589 N.ar    1  UNL1       -0.2188
     29 C          -8.6689   10.7428   -2.8470 C.ar    1  UNL1        0.1205
     30 N          -7.4697   11.2990   -2.5486 N.ar    1  UNL1       -0.2159
     31 C          -6.8268   10.5736   -1.5662 C.ar    1  UNL1        0.1674
     32 H          -6.2137   14.2263   -2.9046 H       1  UNL1        0.0631
     33 H          -4.7533   14.9872   -3.5982 H       1  UNL1        0.0631
     34 H          -4.0823   14.7427   -0.9326 H       1  UNL1        0.0650
     35 H          -3.0110   13.7349   -3.3260 H       1  UNL1        0.0694
     36 H          -4.6028   11.8704   -3.3362 H       1  UNL1        0.0667
     37 H          -3.8170   11.8418   -0.3437 H       1  UNL1        0.0866
     38 H          -4.5479    9.7058    0.6157 H       1  UNL1        0.1030
     39 H          -9.2275   11.2662   -3.6088 H       1  UNL1        0.1048
     40 H          -9.5413    7.7362   -0.0122 H       1  UNL1        0.1438
     41 H          -9.1882    6.9674   -1.5432 H       1  UNL1        0.1438
     42 H          -3.1574   10.0731   -2.3204 H       1  UNL1        0.2101
@<TRIPOS>BOND
     1     1     2    1
     2     1     3    1
     3     1     4    1
     4     1     8    1
     5     5     6    1
     6     5     7    1
     7     5     8    1
     8     5     9    1
     9     9    10    1
    10    10    11    1
    11    11    12    1
    12    11    13    1
    13    12    21    1
    14    13    14    1
    15    13    19    1
    16    14    15    1
    17    15    16    1
    18    15    17    1
    19    15    18    1
    20    19    20    1
    21    19    21    1
    22    21    22    1
    23    22    23   ar
    24    22    31   ar
    25    23    24   ar
    26    24    25   ar
    27    25    26   ar
    28    25    31   ar
    29    26    27    1
    30    26    28   ar
    31    28    29   ar
    32    29    30   ar
    33    30    31   ar
    34    32    10    1
    35    33    10    1
    36    11    34    1
    37    13    35    1
    38    19    36    1
    39    21    37    1
    40    38    23    1
    41    39    29    1
    42    40    27    1
    43    41    27    1
    44    42    20    1
@<TRIPOS>SUBSTRUCTURE
     1 UNL1        1 TEMP              0 ****  ****    0 ROOT

########## Name:	16	502.258  0.962757
@<TRIPOS>MOLECULE
af2_protein.mol216	
 42 44 1 0 0
SMALL
GASTEIGER


@<TRIPOS>ATOM
      1 P          -3.1606    7.8472   -4.0930 P.3     1  UNL1        0.0544
      2 O          -2.2878    7.7554   -5.2808 O.co2   1  UNL1       -0.6615
      3 O          -2.4344    8.0711   -2.7970 O.co2   1  UNL1       -0.6615
      4 O          -4.1804    6.7753   -4.0167 O.co2   1  UNL1       -0.6615
      5 P          -4.9276   10.3249   -3.3201 P.3     1  UNL1        0.2491
      6 O          -4.0917   10.4839   -2.0933 O.co2   1  UNL1       -0.6337
      7 O          -6.3539    9.9315   -3.1605 O.co2   1  UNL1       -0.6337
      8 O          -4.0197    9.2370   -4.2941 O.3     1  UNL1       -0.0930
      9 O          -4.8608   11.7413   -4.1199 O.3     1  UNL1       -0.2057
     10 C          -5.1103   12.9635   -3.4539 C.3     1  UNL1        0.1232
     11 C          -6.4750   12.8212   -2.8465 C.3     1  UNL1        0.1214
     12 O          -6.2564   12.5656   -1.4552 O.3     1  UNL1       -0.3453
     13 C          -7.3215   14.1205   -2.9341 C.3     1  UNL1        0.1593
     14 O          -8.7290   13.7719   -3.0737 O.3     1  UNL1       -0.2421
     15 P          -9.2856   12.9146   -4.4418 P.3     1  UNL1       -0.0004
     16 O         -10.4617   13.7365   -4.8210 O.co2   1  UNL1       -0.6646
     17 O          -8.1291   13.0008   -5.3696 O.co2   1  UNL1       -0.6646
     18 O          -9.5563   11.5194   -3.9792 O.co2   1  UNL1       -0.6646
     19 C          -7.0371   14.7447   -1.5733 C.3     1  UNL1        0.1329
     20 O          -8.0629   15.6983   -1.2183 O.3     1  UNL1       -0.3845
     21 C          -7.1360   13.4377   -0.7621 C.3     1  UNL1        0.1668
     22 N          -6.6063   13.4688    0.6198 N.ar    1  UNL1       -0.2855
     23 C          -7.4034   13.2898    1.7226 C.ar    1  UNL1        0.1004
     24 N          -6.7677   13.3598    2.8546 N.ar    1  UNL1       -0.2306
     25 C          -5.4049   13.6104    2.4951 C.ar    1  UNL1        0.1473
     26 C          -4.1948   13.7761    3.2951 C.ar    1  UNL1        0.1472
     27 N          -4.2165   13.8108    4.6417 N.pl3   1  UNL1       -0.3413
     28 N          -3.0282   13.9719    2.6257 N.ar    1  UNL1       -0.2188
     29 C          -3.0735   14.0208    1.2863 C.ar    1  UNL1        0.1205
     30 N          -4.1126   13.8961    0.4253 N.ar    1  UNL1       -0.2159
     31 C          -5.2906   13.6798    1.1109 C.ar    1  UNL1        0.1674
     32 H          -4.3642   13.1325   -2.6774 H       1  UNL1        0.0631
     33 H          -5.1017   13.7873   -4.1675 H       1  UNL1        0.0631
     34 H          -7.0094   11.9893   -3.3053 H       1  UNL1        0.0650
     35 H          -6.9855   14.7634   -3.7476 H       1  UNL1        0.0694
     36 H          -6.0394   15.1810   -1.5247 H       1  UNL1        0.0667
     37 H          -8.1548   13.0504   -0.7766 H       1  UNL1        0.0866
     38 H          -8.4658   13.1068    1.6560 H       1  UNL1        0.1030
     39 H          -2.1177   14.1885    0.8124 H       1  UNL1        0.1048
     40 H          -4.3596   12.9600    5.1667 H       1  UNL1        0.1438
     41 H          -4.0898   14.6879    5.1263 H       1  UNL1        0.1438
     42 H          -8.1494   15.7350   -0.2629 H       1  UNL1        0.2101
@<TRIPOS>BOND
     1     1     2    1
     2     1     3    1
     3     1     4    1
     4     1     8    1
     5     5     6    1
     6     5     7    1
     7     5     8    1
     8     5     9    1
     9     9    10    1
    10    10    11    1
    11    11    12    1
    12    11    13    1
    13    12    21    1
    14    13    14    1
    15    13    19    1
    16    14    15    1
    17    15    16    1
    18    15    17    1
    19    15    18    1
    20    19    20    1
    21    19    21    1
    22    21    22    1
    23    22    23   ar
    24    22    31   ar
    25    23    24   ar
    26    24    25   ar
    27    25    26   ar
    28    25    31   ar
    29    26    27    1
    30    26    28   ar
    31    28    29   ar
    32    29    30   ar
    33    30    31   ar
    34    32    10    1
    35    33    10    1
    36    11    34    1
    37    13    35    1
    38    19    36    1
    39    21    37    1
    40    38    23    1
    41    39    29    1
    42    40    27    1
    43    41    27    1
    44    42    20    1
@<TRIPOS>SUBSTRUCTURE
     1 UNL1        1 TEMP              0 ****  ****    0 ROOT

########## Name:	17	1143.22  0.971333
@<TRIPOS>MOLECULE
af2_protein.mol217	
 42 44 1 0 0
SMALL
GASTEIGER


@<TRIPOS>ATOM
      1 P          -2.4492    7.7942   -4.0901 P.3     1  UNL1        0.0544
      2 O          -1.5305    7.7785   -5.2463 O.co2   1  UNL1       -0.6615
      3 O          -1.7946    8.0998   -2.7730 O.co2   1  UNL1       -0.6615
      4 O          -3.3609    6.6276   -4.0358 O.co2   1  UNL1       -0.6615
      5 P          -4.4772   10.0922   -3.4081 P.3     1  UNL1        0.2491
      6 O          -3.7045   10.3435   -2.1555 O.co2   1  UNL1       -0.6337
      7 O          -5.8626    9.5615   -3.2925 O.co2   1  UNL1       -0.6337
      8 O          -3.4331    9.0906   -4.3374 O.3     1  UNL1       -0.0930
      9 O          -4.5217   11.5013   -4.2222 O.3     1  UNL1       -0.2057
     10 C          -4.9133   12.6986   -3.5801 C.3     1  UNL1        0.1232
     11 C          -6.2780   12.4279   -3.0179 C.3     1  UNL1        0.1214
     12 O          -6.0843   12.2071   -1.6169 O.3     1  UNL1       -0.3453
     13 C          -7.2443   13.6365   -3.1500 C.3     1  UNL1        0.1593
     14 O          -8.6050   13.1497   -3.3334 O.3     1  UNL1       -0.2421
     15 P          -9.0263   12.2298   -4.7092 P.3     1  UNL1       -0.0004
     16 O         -10.2633   12.9284   -5.1382 O.co2   1  UNL1       -0.6646
     17 O          -7.8520   12.4215   -5.5980 O.co2   1  UNL1       -0.6646
     18 O          -9.1747   10.8188   -4.2392 O.co2   1  UNL1       -0.6646
     19 C          -7.0706   14.2976   -1.7880 C.3     1  UNL1        0.1329
     20 O          -8.1970   15.1484   -1.4798 O.3     1  UNL1       -0.3845
     21 C          -7.0691   12.9943   -0.9649 C.3     1  UNL1        0.1668
     22 N          -6.5940   13.0894    0.4338 N.ar    1  UNL1       -0.2855
     23 C          -7.4080   12.8423    1.5109 C.ar    1  UNL1        0.1004
     24 N          -6.8224   12.9845    2.6629 N.ar    1  UNL1       -0.2306
     25 C          -5.4790   13.3651    2.3472 C.ar    1  UNL1        0.1473
     26 C          -4.3199   13.6563    3.1859 C.ar    1  UNL1        0.1472
     27 N          -4.3922   13.7004    4.5305 N.pl3   1  UNL1       -0.3413
     28 N          -3.1554   13.9603    2.5545 N.ar    1  UNL1       -0.2188
     29 C          -3.1582   13.9928    1.2137 C.ar    1  UNL1        0.1205
     30 N          -4.1490   13.7588    0.3194 N.ar    1  UNL1       -0.2159
     31 C          -5.3234   13.4334    0.9670 C.ar    1  UNL1        0.1674
     32 H          -4.2152   12.9471   -2.7807 H       1  UNL1        0.0631
     33 H          -4.9605   13.5131   -4.3028 H       1  UNL1        0.0631
     34 H          -6.7116   11.5433   -3.4846 H       1  UNL1        0.0650
     35 H          -6.9447   14.3023   -3.9593 H       1  UNL1        0.0694
     36 H          -6.1230   14.8305   -1.7107 H       1  UNL1        0.0667
     37 H          -8.0438   12.5083   -1.0095 H       1  UNL1        0.0866
     38 H          -8.4442   12.5549    1.4102 H       1  UNL1        0.1030
     39 H          -2.2073   14.2498    0.7708 H       1  UNL1        0.1048
     40 H          -4.4694   12.8442    5.0606 H       1  UNL1        0.1438
     41 H          -4.3694   14.5898    5.0085 H       1  UNL1        0.1438
     42 H          -8.3202   15.1847   -0.5284 H       1  UNL1        0.2101
@<TRIPOS>BOND
     1     1     2    1
     2     1     3    1
     3     1     4    1
     4     1     8    1
     5     5     6    1
     6     5     7    1
     7     5     8    1
     8     5     9    1
     9     9    10    1
    10    10    11    1
    11    11    12    1
    12    11    13    1
    13    12    21    1
    14    13    14    1
    15    13    19    1
    16    14    15    1
    17    15    16    1
    18    15    17    1
    19    15    18    1
    20    19    20    1
    21    19    21    1
    22    21    22    1
    23    22    23   ar
    24    22    31   ar
    25    23    24   ar
    26    24    25   ar
    27    25    26   ar
    28    25    31   ar
    29    26    27    1
    30    26    28   ar
    31    28    29   ar
    32    29    30   ar
    33    30    31   ar
    34    32    10    1
    35    33    10    1
    36    11    34    1
    37    13    35    1
    38    19    36    1
    39    21    37    1
    40    38    23    1
    41    39    29    1
    42    40    27    1
    43    41    27    1
    44    42    20    1
@<TRIPOS>SUBSTRUCTURE
     1 UNL1        1 TEMP              0 ****  ****    0 ROOT

########## Name:	18	1050.89  0.965944
@<TRIPOS>MOLECULE
af2_protein.mol218	
 42 44 1 0 0
SMALL
GASTEIGER


@<TRIPOS>ATOM
      1 P          -2.5867    7.8814   -3.7457 P.3     1  UNL1        0.0544
      2 O          -1.5539    7.7517   -4.7933 O.co2   1  UNL1       -0.6615
      3 O          -2.0514    8.1389   -2.3658 O.co2   1  UNL1       -0.6615
      4 O          -3.6162    6.8169   -3.7867 O.co2   1  UNL1       -0.6615
      5 P          -4.4246   10.3883   -3.3024 P.3     1  UNL1        0.2491
      6 O          -3.7713   10.5784   -1.9734 O.co2   1  UNL1       -0.6337
      7 O          -5.8623   10.0062   -3.3379 O.co2   1  UNL1       -0.6337
      8 O          -3.3961    9.2688   -4.1061 O.3     1  UNL1       -0.0930
      9 O          -4.2318   11.7810   -4.1232 O.3     1  UNL1       -0.2057
     10 C          -4.5633   13.0228   -3.5338 C.3     1  UNL1        0.1232
     11 C          -6.0021   12.9043   -3.1244 C.3     1  UNL1        0.1214
     12 O          -5.9869   12.6874   -1.7095 O.3     1  UNL1       -0.3453
     13 C          -6.8160   14.2044   -3.3680 C.3     1  UNL1        0.1593
     14 O          -8.1920   13.8585   -3.6981 O.3     1  UNL1       -0.2421
     15 P          -8.5547   12.9650   -5.1076 P.3     1  UNL1       -0.0004
     16 O          -9.6574   13.7812   -5.6738 O.co2   1  UNL1       -0.6646
     17 O          -7.2768   13.0194   -5.8623 O.co2   1  UNL1       -0.6646
     18 O          -8.9009   11.5849   -4.6502 O.co2   1  UNL1       -0.6646
     19 C          -6.7237   14.8659   -1.9982 C.3     1  UNL1        0.1329
     20 O          -7.7815   15.8339   -1.8202 O.3     1  UNL1       -0.3845
     21 C          -6.9490   13.5830   -1.1739 C.3     1  UNL1        0.1668
     22 N          -6.6221   13.6511    0.2683 N.ar    1  UNL1       -0.2855
     23 C          -7.5703   13.5073    1.2501 C.ar    1  UNL1        0.1004
     24 N          -7.1024   13.6066    2.4590 N.ar    1  UNL1       -0.2306
     25 C          -5.7000   13.8406    2.2917 C.ar    1  UNL1        0.1473
     26 C          -4.6153   14.0235    3.2518 C.ar    1  UNL1        0.1472
     27 N          -4.8291   14.0967    4.5799 N.pl3   1  UNL1       -0.3413
     28 N          -3.3634   14.1947    2.7512 N.ar    1  UNL1       -0.2188
     29 C          -3.2163   14.2056    1.4182 C.ar    1  UNL1        0.1205
     30 N          -4.1226   14.0611    0.4211 N.ar    1  UNL1       -0.2159
     31 C          -5.3883   13.8699    0.9367 C.ar    1  UNL1        0.1674
     32 H          -3.9345   13.2104   -2.6634 H       1  UNL1        0.0631
     33 H          -4.4456   13.8259   -4.2612 H       1  UNL1        0.0631
     34 H          -6.4726   12.0621   -3.6318 H       1  UNL1        0.0650
     35 H          -6.3616   14.8223   -4.1424 H       1  UNL1        0.0694
     36 H          -5.7396   15.2988   -1.8194 H       1  UNL1        0.0667
     37 H          -7.9585   13.2002   -1.3234 H       1  UNL1        0.0866
     38 H          -8.6137   13.3274    1.0371 H       1  UNL1        0.1030
     39 H          -2.2011   14.3552    1.0817 H       1  UNL1        0.1048
     40 H          -5.0532   13.2618    5.1023 H       1  UNL1        0.1438
     41 H          -4.7654   14.9866    5.0533 H       1  UNL1        0.1438
     42 H          -8.0034   15.8982   -0.8884 H       1  UNL1        0.2101
@<TRIPOS>BOND
     1     1     2    1
     2     1     3    1
     3     1     4    1
     4     1     8    1
     5     5     6    1
     6     5     7    1
     7     5     8    1
     8     5     9    1
     9     9    10    1
    10    10    11    1
    11    11    12    1
    12    11    13    1
    13    12    21    1
    14    13    14    1
    15    13    19    1
    16    14    15    1
    17    15    16    1
    18    15    17    1
    19    15    18    1
    20    19    20    1
    21    19    21    1
    22    21    22    1
    23    22    23   ar
    24    22    31   ar
    25    23    24   ar
    26    24    25   ar
    27    25    26   ar
    28    25    31   ar
    29    26    27    1
    30    26    28   ar
    31    28    29   ar
    32    29    30   ar
    33    30    31   ar
    34    32    10    1
    35    33    10    1
    36    11    34    1
    37    13    35    1
    38    19    36    1
    39    21    37    1
    40    38    23    1
    41    39    29    1
    42    40    27    1
    43    41    27    1
    44    42    20    1
@<TRIPOS>SUBSTRUCTURE
     1 UNL1        1 TEMP              0 ****  ****    0 ROOT

########## Name:	19	1116.64  0.966281
@<TRIPOS>MOLECULE
af2_protein.mol219	
 42 44 1 0 0
SMALL
GASTEIGER


@<TRIPOS>ATOM
      1 P          -2.4718    8.2560   -3.6994 P.3     1  UNL1        0.0544
      2 O          -1.5814    8.2467   -4.8775 O.co2   1  UNL1       -0.6615
      3 O          -1.7953    8.6068   -2.4047 O.co2   1  UNL1       -0.6615
      4 O          -3.3449    7.0631   -3.6011 O.co2   1  UNL1       -0.6615
      5 P          -4.5537   10.5029   -3.0092 P.3     1  UNL1        0.2491
      6 O          -3.7591   10.8017   -1.7810 O.co2   1  UNL1       -0.6337
      7 O          -5.9186    9.9319   -2.8497 O.co2   1  UNL1       -0.6337
      8 O          -3.5016    9.5165   -3.9457 O.3     1  UNL1       -0.0930
      9 O          -4.6621   11.8942   -3.8477 O.3     1  UNL1       -0.2057
     10 C          -5.0753   13.0909   -3.2179 C.3     1  UNL1        0.1232
     11 C          -6.4168   12.7888   -2.6172 C.3     1  UNL1        0.1214
     12 O          -6.1824   12.6008   -1.2176 O.3     1  UNL1       -0.3453
     13 C          -7.4234   13.9644   -2.7473 C.3     1  UNL1        0.1593
     14 O          -8.7722   13.4323   -2.8879 O.3     1  UNL1       -0.2421
     15 P          -9.1977   12.4738   -4.2358 P.3     1  UNL1       -0.0004
     16 O         -10.4661   13.1256   -4.6467 O.co2   1  UNL1       -0.6646
     17 O          -8.0519   12.6848   -5.1568 O.co2   1  UNL1       -0.6646
     18 O          -9.2905   11.0681   -3.7366 O.co2   1  UNL1       -0.6646
     19 C          -7.2375   14.6562   -1.4023 C.3     1  UNL1        0.1329
     20 O          -8.3823   15.4776   -1.0818 O.3     1  UNL1       -0.3845
     21 C          -7.1753   13.3695   -0.5559 C.3     1  UNL1        0.1668
     22 N          -6.6695   13.5058    0.8287 N.ar    1  UNL1       -0.2855
     23 C          -7.4490   13.2543    1.9300 C.ar    1  UNL1        0.1004
     24 N          -6.8404   13.4363    3.0643 N.ar    1  UNL1       -0.2306
     25 C          -5.5176   13.8522    2.7084 C.ar    1  UNL1        0.1473
     26 C          -4.3482   14.1949    3.5126 C.ar    1  UNL1        0.1472
     27 N          -4.3893   14.2623    4.8575 N.pl3   1  UNL1       -0.3413
     28 N          -3.2095   14.5227    2.8470 N.ar    1  UNL1       -0.2188
     29 C          -3.2458   14.5296    1.5064 C.ar    1  UNL1        0.1205
     30 N          -4.2502   14.2481    0.6413 N.ar    1  UNL1       -0.2159
     31 C          -5.3978   13.8990    1.3237 C.ar    1  UNL1        0.1674
     32 H          -4.3661   13.3759   -2.4408 H       1  UNL1        0.0631
     33 H          -5.1656   13.8896   -3.9541 H       1  UNL1        0.0631
     34 H          -6.8336   11.8826   -3.0567 H       1  UNL1        0.0650
     35 H          -7.1646   14.6236   -3.5758 H       1  UNL1        0.0694
     36 H          -6.3055   15.2195   -1.3583 H       1  UNL1        0.0667
     37 H          -8.1350   12.8529   -0.5673 H       1  UNL1        0.0866
     38 H          -8.4779   12.9331    1.8603 H       1  UNL1        0.1030
     39 H          -2.3145   14.8073    1.0353 H       1  UNL1        0.1048
     40 H          -4.4267   13.4144    5.4049 H       1  UNL1        0.1438
     41 H          -4.3827   15.1610    5.3185 H       1  UNL1        0.1438
     42 H          -8.4834   15.5281   -0.1285 H       1  UNL1        0.2101
@<TRIPOS>BOND
     1     1     2    1
     2     1     3    1
     3     1     4    1
     4     1     8    1
     5     5     6    1
     6     5     7    1
     7     5     8    1
     8     5     9    1
     9     9    10    1
    10    10    11    1
    11    11    12    1
    12    11    13    1
    13    12    21    1
    14    13    14    1
    15    13    19    1
    16    14    15    1
    17    15    16    1
    18    15    17    1
    19    15    18    1
    20    19    20    1
    21    19    21    1
    22    21    22    1
    23    22    23   ar
    24    22    31   ar
    25    23    24   ar
    26    24    25   ar
    27    25    26   ar
    28    25    31   ar
    29    26    27    1
    30    26    28   ar
    31    28    29   ar
    32    29    30   ar
    33    30    31   ar
    34    32    10    1
    35    33    10    1
    36    11    34    1
    37    13    35    1
    38    19    36    1
    39    21    37    1
    40    38    23    1
    41    39    29    1
    42    40    27    1
    43    41    27    1
    44    42    20    1
@<TRIPOS>SUBSTRUCTURE
     1 UNL1        1 TEMP              0 ****  ****    0 ROOT

