########## Name:	0	1997.85
@<TRIPOS>MOLECULE
af2_protein.mol20	
 42 44 1 0 0
SMALL
GASTEIGER


@<TRIPOS>ATOM
      1 P          -0.9786    8.7281   -2.8115 P.3     1  UNL1        0.0544
      2 O           0.3458    9.3812   -2.7946 O.co2   1  UNL1       -0.6615
      3 O          -1.6867    8.7117   -1.4867 O.co2   1  UNL1       -0.6615
      4 O          -0.9886    7.4156   -3.4987 O.co2   1  UNL1       -0.6615
      5 P          -3.6069    9.9733   -3.9947 P.3     1  UNL1        0.2491
      6 O          -3.3509   10.0395   -2.5253 O.co2   1  UNL1       -0.6337
      7 O          -4.8197    9.2550   -4.4718 O.co2   1  UNL1       -0.6337
      8 O          -1.9284    9.7006   -3.7400 O.3     1  UNL1       -0.0930
      9 O          -3.6842   11.4657   -4.6407 O.3     1  UNL1       -0.2057
     10 C          -4.4873   12.4703   -4.0533 C.3     1  UNL1        0.1232
     11 C          -5.6441   11.7480   -3.4273 C.3     1  UNL1        0.1214
     12 O          -5.3640   11.7083   -2.0240 O.3     1  UNL1       -0.3453
     13 C          -6.9943   12.4976   -3.5920 C.3     1  UNL1        0.1593
     14 O          -8.0759   11.5276   -3.6978 O.3     1  UNL1       -0.2421
     15 P          -8.1348   10.4223   -4.9984 P.3     1  UNL1       -0.0004
     16 O          -9.5470   10.5780   -5.4273 O.co2   1  UNL1       -0.6646
     17 O          -7.1250   10.9741   -5.9373 O.co2   1  UNL1       -0.6646
     18 O          -7.7410    9.0944   -4.4366 O.co2   1  UNL1       -0.6646
     19 C          -7.0633   13.2641   -2.2768 C.3     1  UNL1        0.1329
     20 O          -8.4224   13.6520   -1.9762 O.3     1  UNL1       -0.3845
     21 C          -6.5635   12.1127   -1.3820 C.3     1  UNL1        0.1668
     22 N          -6.1408   12.4703   -0.0092 N.ar    1  UNL1       -0.2855
     23 C          -6.7459   11.9553    1.1099 C.ar    1  UNL1        0.1004
     24 N          -6.2492   12.3899    2.2300 N.ar    1  UNL1       -0.2306
     25 C          -5.2038   13.2884    1.8437 C.ar    1  UNL1        0.1473
     26 C          -4.2593   14.0854    2.6211 C.ar    1  UNL1        0.1472
     27 N          -4.3113   14.1618    3.9652 N.pl3   1  UNL1       -0.3413
     28 N          -3.3507   14.8229    1.9300 N.ar    1  UNL1       -0.2188
     29 C          -3.3992   14.7842    0.5903 C.ar    1  UNL1        0.1205
     30 N          -4.2172   14.1074   -0.2519 N.ar    1  UNL1       -0.2159
     31 C          -5.1253   13.3472    0.4565 C.ar    1  UNL1        0.1674
     32 H          -3.9229   13.0133   -3.2952 H       1  UNL1        0.0631
     33 H          -4.8453   13.1587   -4.8187 H       1  UNL1        0.0631
     34 H          -5.7209   10.7368   -3.8271 H       1  UNL1        0.0650
     35 H          -6.9723   13.1681   -4.4511 H       1  UNL1        0.0694
     36 H          -6.3834   14.1159   -2.2652 H       1  UNL1        0.0667
     37 H          -7.2392   11.2575   -1.3676 H       1  UNL1        0.0866
     38 H          -7.5632   11.2507    1.0639 H       1  UNL1        0.1030
     39 H          -2.6593   15.3979    0.0982 H       1  UNL1        0.1048
     40 H          -4.0038   13.3814    4.5278 H       1  UNL1        0.1438
     41 H          -4.6580   14.9995    4.4103 H       1  UNL1        0.1438
     42 H          -8.5378   13.7032   -1.0245 H       1  UNL1        0.2101
@<TRIPOS>BOND
     1     1     2    1
     2     1     3    1
     3     1     4    1
     4     1     8    1
     5     5     6    1
     6     5     7    1
     7     5     8    1
     8     5     9    1
     9     9    10    1
    10    10    11    1
    11    11    12    1
    12    11    13    1
    13    12    21    1
    14    13    14    1
    15    13    19    1
    16    14    15    1
    17    15    16    1
    18    15    17    1
    19    15    18    1
    20    19    20    1
    21    19    21    1
    22    21    22    1
    23    22    23   ar
    24    22    31   ar
    25    23    24   ar
    26    24    25   ar
    27    25    26   ar
    28    25    31   ar
    29    26    27    1
    30    26    28   ar
    31    28    29   ar
    32    29    30   ar
    33    30    31   ar
    34    32    10    1
    35    33    10    1
    36    11    34    1
    37    13    35    1
    38    19    36    1
    39    21    37    1
    40    38    23    1
    41    39    29    1
    42    40    27    1
    43    41    27    1
    44    42    20    1
@<TRIPOS>SUBSTRUCTURE
     1 UNL1        1 TEMP              0 ****  ****    0 ROOT

########## Name:	1	1974.7
@<TRIPOS>MOLECULE
af2_protein.mol21	
 42 44 1 0 0
SMALL
GASTEIGER


@<TRIPOS>ATOM
      1 P          -2.2972    8.1222   -3.3923 P.3     1  UNL1        0.0544
      2 O          -3.2461    7.1637   -3.9939 O.co2   1  UNL1       -0.6615
      3 O          -0.9738    8.2203   -4.0963 O.co2   1  UNL1       -0.6615
      4 O          -2.1716    7.9952   -1.9216 O.co2   1  UNL1       -0.6615
      5 P          -2.4850   11.2528   -3.5432 P.3     1  UNL1        0.2491
      6 O          -1.9063   12.2894   -2.6377 O.co2   1  UNL1       -0.6337
      7 O          -3.2149   10.1074   -2.9351 O.co2   1  UNL1       -0.6337
      8 O          -2.9692    9.6054   -3.6344 O.3     1  UNL1       -0.0930
      9 O          -3.6108   12.0568   -4.4014 O.3     1  UNL1       -0.2057
     10 C          -4.5251   12.9270   -3.7639 C.3     1  UNL1        0.1232
     11 C          -5.6064   12.0440   -3.2135 C.3     1  UNL1        0.1214
     12 O          -5.3432   11.9358   -1.8106 O.3     1  UNL1       -0.3453
     13 C          -7.0267   12.6562   -3.3554 C.3     1  UNL1        0.1593
     14 O          -7.9966   11.5869   -3.5503 O.3     1  UNL1       -0.2421
     15 P          -7.9323   10.5901   -4.9356 P.3     1  UNL1       -0.0004
     16 O          -9.3221   10.7278   -5.4375 O.co2   1  UNL1       -0.6646
     17 O          -6.8931   11.2540   -5.7632 O.co2   1  UNL1       -0.6646
     18 O          -7.5168    9.2364   -4.4575 O.co2   1  UNL1       -0.6646
     19 C          -7.1958   13.3168   -1.9925 C.3     1  UNL1        0.1329
     20 O          -8.5926   13.5364   -1.6952 O.3     1  UNL1       -0.3845
     21 C          -6.5880   12.1648   -1.1682 C.3     1  UNL1        0.1668
     22 N          -6.2251   12.4678    0.2346 N.ar    1  UNL1       -0.2855
     23 C          -6.8316   11.8587    1.3046 C.ar    1  UNL1        0.1004
     24 N          -6.3921   12.2566    2.4616 N.ar    1  UNL1       -0.2306
     25 C          -5.3886   13.2312    2.1576 C.ar    1  UNL1        0.1473
     26 C          -4.5130   14.0342    3.0063 C.ar    1  UNL1        0.1472
     27 N          -4.6072   14.0324    4.3502 N.pl3   1  UNL1       -0.3413
     28 N          -3.6283   14.8578    2.3849 N.ar    1  UNL1       -0.2188
     29 C          -3.6366   14.8913    1.0442 C.ar    1  UNL1        0.1205
     30 N          -4.3909   14.2188    0.1414 N.ar    1  UNL1       -0.2159
     31 C          -5.2743   13.3716    0.7787 C.ar    1  UNL1        0.1674
     32 H          -4.0326   13.4721   -2.9586 H       1  UNL1        0.0631
     33 H          -4.9441   13.6257   -4.4879 H       1  UNL1        0.0631
     34 H          -5.5688   11.0610   -3.6831 H       1  UNL1        0.0650
     35 H          -7.0754   13.3922   -4.1578 H       1  UNL1        0.0694
     36 H          -6.6111   14.2327   -1.9074 H       1  UNL1        0.0667
     37 H          -7.2144   11.2743   -1.2213 H       1  UNL1        0.0866
     38 H          -7.6062   11.1140    1.1949 H       1  UNL1        0.1030
     39 H          -2.9189   15.5712    0.6095 H       1  UNL1        0.1048
     40 H          -4.2722   13.2399    4.8791 H       1  UNL1        0.1438
     41 H          -5.0131   14.8237    4.8290 H       1  UNL1        0.1438
     42 H          -8.7262   13.5073   -0.7449 H       1  UNL1        0.2101
@<TRIPOS>BOND
     1     1     2    1
     2     1     3    1
     3     1     4    1
     4     1     8    1
     5     5     6    1
     6     5     7    1
     7     5     8    1
     8     5     9    1
     9     9    10    1
    10    10    11    1
    11    11    12    1
    12    11    13    1
    13    12    21    1
    14    13    14    1
    15    13    19    1
    16    14    15    1
    17    15    16    1
    18    15    17    1
    19    15    18    1
    20    19    20    1
    21    19    21    1
    22    21    22    1
    23    22    23   ar
    24    22    31   ar
    25    23    24   ar
    26    24    25   ar
    27    25    26   ar
    28    25    31   ar
    29    26    27    1
    30    26    28   ar
    31    28    29   ar
    32    29    30   ar
    33    30    31   ar
    34    32    10    1
    35    33    10    1
    36    11    34    1
    37    13    35    1
    38    19    36    1
    39    21    37    1
    40    38    23    1
    41    39    29    1
    42    40    27    1
    43    41    27    1
    44    42    20    1
@<TRIPOS>SUBSTRUCTURE
     1 UNL1        1 TEMP              0 ****  ****    0 ROOT

########## Name:	2	1955.35
@<TRIPOS>MOLECULE
af2_protein.mol22	
 42 44 1 0 0
SMALL
GASTEIGER


@<TRIPOS>ATOM
      1 P          -0.8997    8.5086   -2.5719 P.3     1  UNL1        0.0544
      2 O          -0.8241    8.2798   -1.1149 O.co2   1  UNL1       -0.6615
      3 O          -1.9010    7.6495   -3.2904 O.co2   1  UNL1       -0.6615
      4 O           0.4223    8.5524   -3.2392 O.co2   1  UNL1       -0.6615
      5 P          -2.2826   10.9625   -3.9594 P.3     1  UNL1        0.2491
      6 O          -3.2577    9.9823   -4.5230 O.co2   1  UNL1       -0.6337
      7 O          -1.3678   11.6709   -4.8951 O.co2   1  UNL1       -0.6337
      8 O          -1.5105   10.0281   -2.7398 O.3     1  UNL1       -0.0930
      9 O          -3.2362   11.9958   -3.1390 O.3     1  UNL1       -0.2057
     10 C          -4.3606   12.5915   -3.7557 C.3     1  UNL1        0.1232
     11 C          -5.5534   11.8594   -3.2144 C.3     1  UNL1        0.1214
     12 O          -5.3395   11.7585   -1.8025 O.3     1  UNL1       -0.3453
     13 C          -6.8859   12.6329   -3.4099 C.3     1  UNL1        0.1593
     14 O          -7.9723   11.6824   -3.6057 O.3     1  UNL1       -0.2421
     15 P          -7.9572   10.5971   -4.9243 P.3     1  UNL1       -0.0004
     16 O          -9.3790   10.6571   -5.3454 O.co2   1  UNL1       -0.6646
     17 O          -6.9945   11.2360   -5.8575 O.co2   1  UNL1       -0.6646
     18 O          -7.4657    9.2923   -4.3862 O.co2   1  UNL1       -0.6646
     19 C          -7.0076   13.3456   -2.0684 C.3     1  UNL1        0.1329
     20 O          -8.3747   13.7387   -1.8150 O.3     1  UNL1       -0.3845
     21 C          -6.5630   12.1520   -1.2003 C.3     1  UNL1        0.1668
     22 N          -6.2007   12.4473    0.2043 N.ar    1  UNL1       -0.2855
     23 C          -6.9058   11.9494    1.2714 C.ar    1  UNL1        0.1004
     24 N          -6.4494   12.3223    2.4302 N.ar    1  UNL1       -0.2306
     25 C          -5.3243   13.1551    2.1307 C.ar    1  UNL1        0.1473
     26 C          -4.3768   13.8667    2.9838 C.ar    1  UNL1        0.1472
     27 N          -4.5046   13.9150    4.3241 N.pl3   1  UNL1       -0.3413
     28 N          -3.3803   14.5556    2.3676 N.ar    1  UNL1       -0.2188
     29 C          -3.3503   14.5516    1.0268 C.ar    1  UNL1        0.1205
     30 N          -4.1598   13.9529    0.1199 N.ar    1  UNL1       -0.2159
     31 C          -5.1584   13.2408    0.7527 C.ar    1  UNL1        0.1674
     32 H          -3.8260   13.0954   -2.9505 H       1  UNL1        0.0631
     33 H          -4.6747   13.3154   -4.5075 H       1  UNL1        0.0631
     34 H          -5.6228   10.8666   -3.6590 H       1  UNL1        0.0650
     35 H          -6.7937   13.3153   -4.2547 H       1  UNL1        0.0694
     36 H          -6.3193   14.1870   -1.9892 H       1  UNL1        0.0667
     37 H          -7.2946   11.3454   -1.2490 H       1  UNL1        0.0866
     38 H          -7.7645   11.3041    1.1582 H       1  UNL1        0.1030
     39 H          -2.5423   15.1241    0.5960 H       1  UNL1        0.1048
     40 H          -4.2850   13.1023    4.8821 H       1  UNL1        0.1438
     41 H          -4.8201   14.7640    4.7709 H       1  UNL1        0.1438
     42 H          -8.5341   13.7516   -0.8683 H       1  UNL1        0.2101
@<TRIPOS>BOND
     1     1     2    1
     2     1     3    1
     3     1     4    1
     4     1     8    1
     5     5     6    1
     6     5     7    1
     7     5     8    1
     8     5     9    1
     9     9    10    1
    10    10    11    1
    11    11    12    1
    12    11    13    1
    13    12    21    1
    14    13    14    1
    15    13    19    1
    16    14    15    1
    17    15    16    1
    18    15    17    1
    19    15    18    1
    20    19    20    1
    21    19    21    1
    22    21    22    1
    23    22    23   ar
    24    22    31   ar
    25    23    24   ar
    26    24    25   ar
    27    25    26   ar
    28    25    31   ar
    29    26    27    1
    30    26    28   ar
    31    28    29   ar
    32    29    30   ar
    33    30    31   ar
    34    32    10    1
    35    33    10    1
    36    11    34    1
    37    13    35    1
    38    19    36    1
    39    21    37    1
    40    38    23    1
    41    39    29    1
    42    40    27    1
    43    41    27    1
    44    42    20    1
@<TRIPOS>SUBSTRUCTURE
     1 UNL1        1 TEMP              0 ****  ****    0 ROOT

########## Name:	3	2006.3
@<TRIPOS>MOLECULE
af2_protein.mol23	
 42 44 1 0 0
SMALL
GASTEIGER


@<TRIPOS>ATOM
      1 P          -0.5225    9.0410   -3.8280 P.3     1  UNL1        0.0544
      2 O           0.5392    9.5002   -4.7460 O.co2   1  UNL1       -0.6615
      3 O          -0.3694    9.5081   -2.4083 O.co2   1  UNL1       -0.6615
      4 O          -0.8256    7.5953   -3.9407 O.co2   1  UNL1       -0.6615
      5 P          -3.4408   10.1926   -3.6995 P.3     1  UNL1        0.2491
      6 O          -2.7570   10.7027   -2.4742 O.co2   1  UNL1       -0.6337
      7 O          -4.6050    9.2806   -3.5345 O.co2   1  UNL1       -0.6337
      8 O          -1.8912    9.8025   -4.3347 O.3     1  UNL1       -0.0930
      9 O          -3.9136   11.4976   -4.5503 O.3     1  UNL1       -0.2057
     10 C          -4.6316   12.5467   -3.9313 C.3     1  UNL1        0.1232
     11 C          -5.8098   11.8942   -3.2696 C.3     1  UNL1        0.1214
     12 O          -5.4857   11.8276   -1.8769 O.3     1  UNL1       -0.3453
     13 C          -7.1149   12.7284   -3.3848 C.3     1  UNL1        0.1593
     14 O          -8.2584   11.8290   -3.4582 O.3     1  UNL1       -0.2421
     15 P          -8.4353   10.7446   -4.7657 P.3     1  UNL1       -0.0004
     16 O          -9.8500   10.9931   -5.1389 O.co2   1  UNL1       -0.6646
     17 O          -7.4288   11.2433   -5.7373 O.co2   1  UNL1       -0.6646
     18 O          -8.1048    9.3884   -4.2317 O.co2   1  UNL1       -0.6646
     19 C          -7.0911   13.4888   -2.0644 C.3     1  UNL1        0.1329
     20 O          -8.4121   13.9592   -1.7159 O.3     1  UNL1       -0.3845
     21 C          -6.6350   12.3023   -1.1925 C.3     1  UNL1        0.1668
     22 N          -6.1446   12.6233    0.1668 N.ar    1  UNL1       -0.2855
     23 C          -6.7253   12.1167    1.3025 C.ar    1  UNL1        0.1004
     24 N          -6.1679   12.5154    2.4073 N.ar    1  UNL1       -0.2306
     25 C          -5.1034   13.3772    1.9910 C.ar    1  UNL1        0.1473
     26 C          -4.0979   14.1252    2.7401 C.ar    1  UNL1        0.1472
     27 N          -4.0938   14.1845    4.0861 N.pl3   1  UNL1       -0.3413
     28 N          -3.1884   14.8360    2.0227 N.ar    1  UNL1       -0.2188
     29 C          -3.2911   14.8183    0.6856 C.ar    1  UNL1        0.1205
     30 N          -4.1680   14.1864   -0.1318 N.ar    1  UNL1       -0.2159
     31 C          -5.0773   13.4526    0.6026 C.ar    1  UNL1        0.1674
     32 H          -4.0088   13.0480   -3.1903 H       1  UNL1        0.0631
     33 H          -4.9710   13.2614   -4.6808 H       1  UNL1        0.0631
     34 H          -5.9636   10.8926   -3.6712 H       1  UNL1        0.0650
     35 H          -7.0831   13.4061   -4.2378 H       1  UNL1        0.0694
     36 H          -6.3497   14.2867   -2.0244 H       1  UNL1        0.0667
     37 H          -7.3433   11.4743   -1.1620 H       1  UNL1        0.0866
     38 H          -7.5713   11.4457    1.2803 H       1  UNL1        0.1030
     39 H          -2.5471   15.4092    0.1721 H       1  UNL1        0.1048
     40 H          -3.7959   13.3846    4.6260 H       1  UNL1        0.1438
     41 H          -4.3889   15.0288    4.5552 H       1  UNL1        0.1438
     42 H          -8.5069   13.9695   -0.7606 H       1  UNL1        0.2101
@<TRIPOS>BOND
     1     1     2    1
     2     1     3    1
     3     1     4    1
     4     1     8    1
     5     5     6    1
     6     5     7    1
     7     5     8    1
     8     5     9    1
     9     9    10    1
    10    10    11    1
    11    11    12    1
    12    11    13    1
    13    12    21    1
    14    13    14    1
    15    13    19    1
    16    14    15    1
    17    15    16    1
    18    15    17    1
    19    15    18    1
    20    19    20    1
    21    19    21    1
    22    21    22    1
    23    22    23   ar
    24    22    31   ar
    25    23    24   ar
    26    24    25   ar
    27    25    26   ar
    28    25    31   ar
    29    26    27    1
    30    26    28   ar
    31    28    29   ar
    32    29    30   ar
    33    30    31   ar
    34    32    10    1
    35    33    10    1
    36    11    34    1
    37    13    35    1
    38    19    36    1
    39    21    37    1
    40    38    23    1
    41    39    29    1
    42    40    27    1
    43    41    27    1
    44    42    20    1
@<TRIPOS>SUBSTRUCTURE
     1 UNL1        1 TEMP              0 ****  ****    0 ROOT

########## Name:	4	1976.5
@<TRIPOS>MOLECULE
af2_protein.mol24	
 42 44 1 0 0
SMALL
GASTEIGER


@<TRIPOS>ATOM
      1 P          -1.6816    8.1985   -2.7791 P.3     1  UNL1        0.0544
      2 O          -0.2359    8.4974   -2.7367 O.co2   1  UNL1       -0.6615
      3 O          -2.3677    8.2291   -1.4429 O.co2   1  UNL1       -0.6615
      4 O          -2.0210    7.0033   -3.5860 O.co2   1  UNL1       -0.6615
      5 P          -3.9187   10.1671   -3.7684 P.3     1  UNL1        0.2491
      6 O          -3.9352   10.0887   -2.2775 O.co2   1  UNL1       -0.6337
      7 O          -5.1235    9.7153   -4.5159 O.co2   1  UNL1       -0.6337
      8 O          -2.3608    9.4624   -3.5859 O.3     1  UNL1       -0.0930
      9 O          -3.6222   11.6908   -4.2591 O.3     1  UNL1       -0.2057
     10 C          -4.3435   12.7806   -3.7193 C.3     1  UNL1        0.1232
     11 C          -5.5783   12.1850   -3.1092 C.3     1  UNL1        0.1214
     12 O          -5.3399   12.1574   -1.6980 O.3     1  UNL1       -0.3453
     13 C          -6.8483   13.0514   -3.3304 C.3     1  UNL1        0.1593
     14 O          -8.0122   12.1827   -3.4434 O.3     1  UNL1       -0.2421
     15 P          -8.1438   11.0594   -4.7230 P.3     1  UNL1       -0.0004
     16 O          -9.5256   11.3348   -5.1891 O.co2   1  UNL1       -0.6646
     17 O          -7.0665   11.4955   -5.6477 O.co2   1  UNL1       -0.6646
     18 O          -7.8871    9.7135   -4.1258 O.co2   1  UNL1       -0.6646
     19 C          -6.8801   13.8560   -2.0366 C.3     1  UNL1        0.1329
     20 O          -8.2046   14.3754   -1.7844 O.3     1  UNL1       -0.3845
     21 C          -6.5130   12.6878   -1.1003 C.3     1  UNL1        0.1668
     22 N          -6.0948   13.0415    0.2749 N.ar    1  UNL1       -0.2855
     23 C          -6.9252   12.9066    1.3593 C.ar    1  UNL1        0.1004
     24 N          -6.3919   13.2758    2.4860 N.ar    1  UNL1       -0.2306
     25 C          -5.0700   13.7049    2.1430 C.ar    1  UNL1        0.1473
     26 C          -3.9651   14.2157    2.9493 C.ar    1  UNL1        0.1472
     27 N          -4.0870   14.4678    4.2671 N.pl3   1  UNL1       -0.3413
     28 N          -2.8049   14.5051    2.3032 N.ar    1  UNL1       -0.2188
     29 C          -2.7637   14.3232    0.9751 C.ar    1  UNL1        0.1205
     30 N          -3.7031   13.8729    0.1084 N.ar    1  UNL1       -0.2159
     31 C          -4.8722   13.5642    0.7737 C.ar    1  UNL1        0.1674
     32 H          -3.7510   13.2894   -2.9589 H       1  UNL1        0.0631
     33 H          -4.6159   13.4783   -4.5111 H       1  UNL1        0.0631
     34 H          -5.7383   11.1749   -3.4863 H       1  UNL1        0.0650
     35 H          -6.7452   13.6981   -4.2017 H       1  UNL1        0.0694
     36 H          -6.1113   14.6178   -1.9082 H       1  UNL1        0.0667
     37 H          -7.4472   12.1264   -1.0876 H       1  UNL1        0.0866
     38 H          -7.9334   12.5268    1.2832 H       1  UNL1        0.1030
     39 H          -1.8195   14.5797    0.5178 H       1  UNL1        0.1048
     40 H          -4.1194   13.7037    4.9268 H       1  UNL1        0.1438
     41 H          -4.1461   15.4211    4.5955 H       1  UNL1        0.1438
     42 H          -8.3797   14.3616   -0.8406 H       1  UNL1        0.2101
@<TRIPOS>BOND
     1     1     2    1
     2     1     3    1
     3     1     4    1
     4     1     8    1
     5     5     6    1
     6     5     7    1
     7     5     8    1
     8     5     9    1
     9     9    10    1
    10    10    11    1
    11    11    12    1
    12    11    13    1
    13    12    21    1
    14    13    14    1
    15    13    19    1
    16    14    15    1
    17    15    16    1
    18    15    17    1
    19    15    18    1
    20    19    20    1
    21    19    21    1
    22    21    22    1
    23    22    23   ar
    24    22    31   ar
    25    23    24   ar
    26    24    25   ar
    27    25    26   ar
    28    25    31   ar
    29    26    27    1
    30    26    28   ar
    31    28    29   ar
    32    29    30   ar
    33    30    31   ar
    34    32    10    1
    35    33    10    1
    36    11    34    1
    37    13    35    1
    38    19    36    1
    39    21    37    1
    40    38    23    1
    41    39    29    1
    42    40    27    1
    43    41    27    1
    44    42    20    1
@<TRIPOS>SUBSTRUCTURE
     1 UNL1        1 TEMP              0 ****  ****    0 ROOT

########## Name:	5	2019.69
@<TRIPOS>MOLECULE
af2_protein.mol25	
 42 44 1 0 0
SMALL
GASTEIGER


@<TRIPOS>ATOM
      1 P          -1.4210    8.3731   -2.6454 P.3     1  UNL1        0.0544
      2 O          -0.0077    8.8010   -2.6668 O.co2   1  UNL1       -0.6615
      3 O          -2.0913    8.4898   -1.3060 O.co2   1  UNL1       -0.6615
      4 O          -1.6611    7.0712   -3.3105 O.co2   1  UNL1       -0.6615
      5 P          -3.8167   10.0995   -3.7126 P.3     1  UNL1        0.2491
      6 O          -3.6677   10.2360   -2.2333 O.co2   1  UNL1       -0.6337
      7 O          -5.0566    9.4728   -4.2459 O.co2   1  UNL1       -0.6337
      8 O          -2.2206    9.4759   -3.5697 O.3     1  UNL1       -0.0930
      9 O          -3.6137   11.6163   -4.2680 O.3     1  UNL1       -0.2057
     10 C          -4.3539   12.6927   -3.7268 C.3     1  UNL1        0.1232
     11 C          -5.6177   12.0854   -3.1922 C.3     1  UNL1        0.1214
     12 O          -5.4434   12.0116   -1.7733 O.3     1  UNL1       -0.3453
     13 C          -6.8724   12.9657   -3.4427 C.3     1  UNL1        0.1593
     14 O          -8.0339   12.1080   -3.6357 O.3     1  UNL1       -0.2421
     15 P          -8.0734   10.9615   -4.9008 P.3     1  UNL1       -0.0004
     16 O          -9.4084   11.2430   -5.4848 O.co2   1  UNL1       -0.6646
     17 O          -6.9180   11.3675   -5.7409 O.co2   1  UNL1       -0.6646
     18 O          -7.8840    9.6248   -4.2596 O.co2   1  UNL1       -0.6646
     19 C          -6.9592   13.7291   -2.1266 C.3     1  UNL1        0.1329
     20 O          -8.2914   14.2481   -1.9178 O.3     1  UNL1       -0.3845
     21 C          -6.6399   12.5297   -1.2125 C.3     1  UNL1        0.1668
     22 N          -6.2828   12.8372    0.1907 N.ar    1  UNL1       -0.2855
     23 C          -7.0287   12.4015    1.2572 C.ar    1  UNL1        0.1004
     24 N          -6.5699   12.7759    2.4147 N.ar    1  UNL1       -0.2306
     25 C          -5.3979   13.5411    2.1147 C.ar    1  UNL1        0.1473
     26 C          -4.4263   14.2207    2.9667 C.ar    1  UNL1        0.1472
     27 N          -4.5707   14.3061    4.3035 N.pl3   1  UNL1       -0.3413
     28 N          -3.3858   14.8418    2.3513 N.ar    1  UNL1       -0.2188
     29 C          -3.3367   14.8059    1.0116 C.ar    1  UNL1        0.1205
     30 N          -4.1636   14.2304    0.1053 N.ar    1  UNL1       -0.2159
     31 C          -5.2077   13.5866    0.7379 C.ar    1  UNL1        0.1674
     32 H          -3.7941   13.1736   -2.9246 H       1  UNL1        0.0631
     33 H          -4.5870   13.4168   -4.5074 H       1  UNL1        0.0631
     34 H          -5.7649   11.0887   -3.6083 H       1  UNL1        0.0650
     35 H          -6.6895   13.5942   -4.3143 H       1  UNL1        0.0694
     36 H          -6.1914   14.4536   -1.8553 H       1  UNL1        0.0667
     37 H          -7.4126   11.7620   -1.2551 H       1  UNL1        0.0866
     38 H          -7.9189   11.8002    1.1448 H       1  UNL1        0.1030
     39 H          -2.4931   15.3249    0.5810 H       1  UNL1        0.1048
     40 H          -4.4028   13.4958    4.8825 H       1  UNL1        0.1438
     41 H          -4.8470   15.1805    4.7267 H       1  UNL1        0.1438
     42 H          -8.5393   14.1332   -0.9975 H       1  UNL1        0.2101
@<TRIPOS>BOND
     1     1     2    1
     2     1     3    1
     3     1     4    1
     4     1     8    1
     5     5     6    1
     6     5     7    1
     7     5     8    1
     8     5     9    1
     9     9    10    1
    10    10    11    1
    11    11    12    1
    12    11    13    1
    13    12    21    1
    14    13    14    1
    15    13    19    1
    16    14    15    1
    17    15    16    1
    18    15    17    1
    19    15    18    1
    20    19    20    1
    21    19    21    1
    22    21    22    1
    23    22    23   ar
    24    22    31   ar
    25    23    24   ar
    26    24    25   ar
    27    25    26   ar
    28    25    31   ar
    29    26    27    1
    30    26    28   ar
    31    28    29   ar
    32    29    30   ar
    33    30    31   ar
    34    32    10    1
    35    33    10    1
    36    11    34    1
    37    13    35    1
    38    19    36    1
    39    21    37    1
    40    38    23    1
    41    39    29    1
    42    40    27    1
    43    41    27    1
    44    42    20    1
@<TRIPOS>SUBSTRUCTURE
     1 UNL1        1 TEMP              0 ****  ****    0 ROOT

########## Name:	6	1996.13
@<TRIPOS>MOLECULE
af2_protein.mol26	
 42 44 1 0 0
SMALL
GASTEIGER


@<TRIPOS>ATOM
      1 P          -1.2476    8.8425   -3.3456 P.3     1  UNL1        0.0544
      2 O           0.1058    9.3778   -3.5957 O.co2   1  UNL1       -0.6615
      3 O          -1.6448    8.7930   -1.8976 O.co2   1  UNL1       -0.6615
      4 O          -1.5381    7.5873   -4.0770 O.co2   1  UNL1       -0.6615
      5 P          -3.9404   10.3746   -3.8559 P.3     1  UNL1        0.2491
      6 O          -3.8146   10.3372   -2.3687 O.co2   1  UNL1       -0.6337
      7 O          -5.1217    9.7238   -4.4845 O.co2   1  UNL1       -0.6337
      8 O          -2.2779    9.9552   -3.9862 O.3     1  UNL1       -0.0930
      9 O          -4.0432   11.8501   -4.5362 O.3     1  UNL1       -0.2057
     10 C          -4.9027   12.8375   -4.0018 C.3     1  UNL1        0.1232
     11 C          -6.0565   12.0877   -3.4032 C.3     1  UNL1        0.1214
     12 O          -5.7685   11.9832   -2.0049 O.3     1  UNL1       -0.3453
     13 C          -7.4070   12.8449   -3.5255 C.3     1  UNL1        0.1593
     14 O          -8.4900   11.8814   -3.6698 O.3     1  UNL1       -0.2421
     15 P          -8.5620   10.8435   -5.0242 P.3     1  UNL1       -0.0004
     16 O          -9.9782   11.0207   -5.4307 O.co2   1  UNL1       -0.6646
     17 O          -7.5612   11.4424   -5.9436 O.co2   1  UNL1       -0.6646
     18 O          -8.1633    9.4889   -4.5344 O.co2   1  UNL1       -0.6646
     19 C          -7.4680   13.5499   -2.1758 C.3     1  UNL1        0.1329
     20 O          -8.8250   13.9242   -1.8499 O.3     1  UNL1       -0.3845
     21 C          -6.9640   12.3582   -1.3381 C.3     1  UNL1        0.1668
     22 N          -6.5332   12.6517    0.0474 N.ar    1  UNL1       -0.2855
     23 C          -7.1757   12.1399    1.1469 C.ar    1  UNL1        0.1004
     24 N          -6.6646   12.5134    2.2825 N.ar    1  UNL1       -0.2306
     25 C          -5.5671   13.3620    1.9295 C.ar    1  UNL1        0.1473
     26 C          -4.5858   14.0818    2.7361 C.ar    1  UNL1        0.1472
     27 N          -4.6445   14.1224    4.0814 N.pl3   1  UNL1       -0.3413
     28 N          -3.6314   14.7863    2.0728 N.ar    1  UNL1       -0.2188
     29 C          -3.6708   14.7888    0.7322 C.ar    1  UNL1        0.1205
     30 N          -4.5186   14.1838   -0.1347 N.ar    1  UNL1       -0.2159
     31 C          -5.4739   13.4561    0.5452 C.ar    1  UNL1        0.1674
     32 H          -4.3335   13.3447   -3.2227 H       1  UNL1        0.0631
     33 H          -5.2645   13.5608   -4.7325 H       1  UNL1        0.0631
     34 H          -6.1363   11.0961   -3.8488 H       1  UNL1        0.0650
     35 H          -7.3931   13.5582   -4.3495 H       1  UNL1        0.0694
     36 H          -6.8001   14.4110   -2.1947 H       1  UNL1        0.0667
     37 H          -7.6869   11.5425   -1.3531 H       1  UNL1        0.0866
     38 H          -8.0309   11.4842    1.0750 H       1  UNL1        0.1030
     39 H          -2.8934   15.3735    0.2631 H       1  UNL1        0.1048
     40 H          -4.3862   13.3101    4.6231 H       1  UNL1        0.1438
     41 H          -4.9472   14.9653    4.5484 H       1  UNL1        0.1438
     42 H          -8.9190   13.9902   -0.8968 H       1  UNL1        0.2101
@<TRIPOS>BOND
     1     1     2    1
     2     1     3    1
     3     1     4    1
     4     1     8    1
     5     5     6    1
     6     5     7    1
     7     5     8    1
     8     5     9    1
     9     9    10    1
    10    10    11    1
    11    11    12    1
    12    11    13    1
    13    12    21    1
    14    13    14    1
    15    13    19    1
    16    14    15    1
    17    15    16    1
    18    15    17    1
    19    15    18    1
    20    19    20    1
    21    19    21    1
    22    21    22    1
    23    22    23   ar
    24    22    31   ar
    25    23    24   ar
    26    24    25   ar
    27    25    26   ar
    28    25    31   ar
    29    26    27    1
    30    26    28   ar
    31    28    29   ar
    32    29    30   ar
    33    30    31   ar
    34    32    10    1
    35    33    10    1
    36    11    34    1
    37    13    35    1
    38    19    36    1
    39    21    37    1
    40    38    23    1
    41    39    29    1
    42    40    27    1
    43    41    27    1
    44    42    20    1
@<TRIPOS>SUBSTRUCTURE
     1 UNL1        1 TEMP              0 ****  ****    0 ROOT

########## Name:	7	1982.43
@<TRIPOS>MOLECULE
af2_protein.mol27	
 42 44 1 0 0
SMALL
GASTEIGER


@<TRIPOS>ATOM
      1 P          -0.7731    8.6074   -2.2015 P.3     1  UNL1        0.0544
      2 O           0.0969    9.4848   -1.3927 O.co2   1  UNL1       -0.6615
      3 O          -1.9049    7.9748   -1.4428 O.co2   1  UNL1       -0.6615
      4 O          -0.0296    7.6499   -3.0531 O.co2   1  UNL1       -0.6615
      5 P          -2.9927    9.6288   -4.1736 P.3     1  UNL1        0.2491
      6 O          -4.3615   10.1881   -4.3800 O.co2   1  UNL1       -0.6337
      7 O          -1.9398    9.9416   -5.1775 O.co2   1  UNL1       -0.6337
      8 O          -1.5367    9.6118   -3.2589 O.3     1  UNL1       -0.0930
      9 O          -4.0809   10.3415   -3.1946 O.3     1  UNL1       -0.2057
     10 C          -4.4636   11.6881   -3.3933 C.3     1  UNL1        0.1232
     11 C          -5.8991   11.7677   -2.9634 C.3     1  UNL1        0.1214
     12 O          -5.8714   11.8926   -1.5377 O.3     1  UNL1       -0.3453
     13 C          -6.6313   13.0247   -3.5075 C.3     1  UNL1        0.1593
     14 O          -8.0328   12.7040   -3.7418 O.3     1  UNL1       -0.2421
     15 P          -8.4756   11.4563   -4.8206 P.3     1  UNL1       -0.0004
     16 O          -9.5881   12.1095   -5.5541 O.co2   1  UNL1       -0.6646
     17 O          -7.2327   11.2539   -5.6080 O.co2   1  UNL1       -0.6646
     18 O          -8.8251   10.2757   -3.9734 O.co2   1  UNL1       -0.6646
     19 C          -6.4705   13.9848   -2.3351 C.3     1  UNL1        0.1329
     20 O          -7.4597   15.0366   -2.3899 O.3     1  UNL1       -0.3845
     21 C          -6.7630   12.9527   -1.2282 C.3     1  UNL1        0.1668
     22 N          -6.4054   13.3391    0.1553 N.ar    1  UNL1       -0.2855
     23 C          -7.3463   13.5495    1.1322 C.ar    1  UNL1        0.1004
     24 N          -6.8491   13.8925    2.2834 N.ar    1  UNL1       -0.2306
     25 C          -5.4327   13.9202    2.0779 C.ar    1  UNL1        0.1473
     26 C          -4.3178   14.2134    2.9739 C.ar    1  UNL1        0.1472
     27 N          -4.4988   14.6367    4.2400 N.pl3   1  UNL1       -0.3413
     28 N          -3.0636   14.1150    2.4596 N.ar    1  UNL1       -0.2188
     29 C          -2.9396   13.7788    1.1672 C.ar    1  UNL1        0.1205
     30 N          -3.8736   13.4936    0.2277 N.ar    1  UNL1       -0.2159
     31 C          -5.1435   13.5781    0.7614 C.ar    1  UNL1        0.1674
     32 H          -3.8077   12.0342   -2.5944 H       1  UNL1        0.0631
     33 H          -4.3077   12.2856   -4.2914 H       1  UNL1        0.0631
     34 H          -6.4327   10.8628   -3.2543 H       1  UNL1        0.0650
     35 H          -6.1341   13.3407   -4.4245 H       1  UNL1        0.0694
     36 H          -5.5120   14.3446   -1.9611 H       1  UNL1        0.0667
     37 H          -7.8111   12.6595   -1.2886 H       1  UNL1        0.0866
     38 H          -8.4068   13.4396    0.9595 H       1  UNL1        0.1030
     39 H          -1.9201   13.7266    0.8146 H       1  UNL1        0.1048
     40 H          -4.8044   13.9876    4.9508 H       1  UNL1        0.1438
     41 H          -4.3290   15.6034    4.4784 H       1  UNL1        0.1438
     42 H          -7.8621   15.1432   -1.5249 H       1  UNL1        0.2101
@<TRIPOS>BOND
     1     1     2    1
     2     1     3    1
     3     1     4    1
     4     1     8    1
     5     5     6    1
     6     5     7    1
     7     5     8    1
     8     5     9    1
     9     9    10    1
    10    10    11    1
    11    11    12    1
    12    11    13    1
    13    12    21    1
    14    13    14    1
    15    13    19    1
    16    14    15    1
    17    15    16    1
    18    15    17    1
    19    15    18    1
    20    19    20    1
    21    19    21    1
    22    21    22    1
    23    22    23   ar
    24    22    31   ar
    25    23    24   ar
    26    24    25   ar
    27    25    26   ar
    28    25    31   ar
    29    26    27    1
    30    26    28   ar
    31    28    29   ar
    32    29    30   ar
    33    30    31   ar
    34    32    10    1
    35    33    10    1
    36    11    34    1
    37    13    35    1
    38    19    36    1
    39    21    37    1
    40    38    23    1
    41    39    29    1
    42    40    27    1
    43    41    27    1
    44    42    20    1
@<TRIPOS>SUBSTRUCTURE
     1 UNL1        1 TEMP              0 ****  ****    0 ROOT

########## Name:	8	1986.37
@<TRIPOS>MOLECULE
af2_protein.mol28	
 42 44 1 0 0
SMALL
GASTEIGER


@<TRIPOS>ATOM
      1 P          -1.3933    8.3699   -2.9029 P.3     1  UNL1        0.0544
      2 O           0.0249    8.7354   -2.7128 O.co2   1  UNL1       -0.6615
      3 O          -2.1726    8.1980   -1.6301 O.co2   1  UNL1       -0.6615
      4 O          -1.6016    7.2688   -3.8719 O.co2   1  UNL1       -0.6615
      5 P          -3.6723   10.3168   -3.8380 P.3     1  UNL1        0.2491
      6 O          -3.7284   10.0383   -2.3723 O.co2   1  UNL1       -0.6337
      7 O          -4.8665    9.9984   -4.6668 O.co2   1  UNL1       -0.6337
      8 O          -2.0894    9.6878   -3.6017 O.3     1  UNL1       -0.0930
      9 O          -3.4322   11.8441   -4.3479 O.3     1  UNL1       -0.2057
     10 C          -4.1430   12.9220   -3.7714 C.3     1  UNL1        0.1232
     11 C          -5.4810   12.3631   -3.3853 C.3     1  UNL1        0.1214
     12 O          -5.4227   12.1584   -1.9697 O.3     1  UNL1       -0.3453
     13 C          -6.6532   13.3480   -3.6460 C.3     1  UNL1        0.1593
     14 O          -7.8489   12.5939   -3.9976 O.3     1  UNL1       -0.2421
     15 P          -7.8996   11.6480   -5.4187 P.3     1  UNL1       -0.0004
     16 O          -9.1957   12.0860   -5.9938 O.co2   1  UNL1       -0.6646
     17 O          -6.6944   12.1070   -6.1553 O.co2   1  UNL1       -0.6646
     18 O          -7.8027   10.2237   -4.9764 O.co2   1  UNL1       -0.6646
     19 C          -6.7928   14.0025   -2.2769 C.3     1  UNL1        0.1329
     20 O          -8.1010   14.5952   -2.1191 O.3     1  UNL1       -0.3845
     21 C          -6.6234   12.7110   -1.4526 C.3     1  UNL1        0.1668
     22 N          -6.3575   12.8736   -0.0055 N.ar    1  UNL1       -0.2855
     23 C          -7.2547   12.4908    0.9600 C.ar    1  UNL1        0.1004
     24 N          -6.8560   12.7192    2.1762 N.ar    1  UNL1       -0.2306
     25 C          -5.5625   13.3153    2.0324 C.ar    1  UNL1        0.1473
     26 C          -4.5860   13.7861    3.0105 C.ar    1  UNL1        0.1472
     27 N          -4.8401   13.8096    4.3333 N.pl3   1  UNL1       -0.3413
     28 N          -3.4136   14.2794    2.5316 N.ar    1  UNL1       -0.2188
     29 C          -3.2459   14.3193    1.2016 C.ar    1  UNL1        0.1205
     30 N          -4.0598   13.9327    0.1895 N.ar    1  UNL1       -0.2159
     31 C          -5.2405   13.4165    0.6834 C.ar    1  UNL1        0.1674
     32 H          -3.6176   13.2931   -2.8915 H       1  UNL1        0.0631
     33 H          -4.2677   13.7237   -4.4992 H       1  UNL1        0.0631
     34 H          -5.6592   11.4177   -3.8979 H       1  UNL1        0.0650
     35 H          -6.4060   14.0856   -4.4095 H       1  UNL1        0.0694
     36 H          -5.9940   14.7183   -2.0833 H       1  UNL1        0.0667
     37 H          -7.4920   12.0732   -1.6163 H       1  UNL1        0.0866
     38 H          -8.2083   12.0392    0.7295 H       1  UNL1        0.1030
     39 H          -2.2995   14.7303    0.8825 H       1  UNL1        0.1048
     40 H          -4.8463   12.9490    4.8619 H       1  UNL1        0.1438
     41 H          -5.0247   14.6879    4.7965 H       1  UNL1        0.1438
     42 H          -8.3472   14.5855   -1.1913 H       1  UNL1        0.2101
@<TRIPOS>BOND
     1     1     2    1
     2     1     3    1
     3     1     4    1
     4     1     8    1
     5     5     6    1
     6     5     7    1
     7     5     8    1
     8     5     9    1
     9     9    10    1
    10    10    11    1
    11    11    12    1
    12    11    13    1
    13    12    21    1
    14    13    14    1
    15    13    19    1
    16    14    15    1
    17    15    16    1
    18    15    17    1
    19    15    18    1
    20    19    20    1
    21    19    21    1
    22    21    22    1
    23    22    23   ar
    24    22    31   ar
    25    23    24   ar
    26    24    25   ar
    27    25    26   ar
    28    25    31   ar
    29    26    27    1
    30    26    28   ar
    31    28    29   ar
    32    29    30   ar
    33    30    31   ar
    34    32    10    1
    35    33    10    1
    36    11    34    1
    37    13    35    1
    38    19    36    1
    39    21    37    1
    40    38    23    1
    41    39    29    1
    42    40    27    1
    43    41    27    1
    44    42    20    1
@<TRIPOS>SUBSTRUCTURE
     1 UNL1        1 TEMP              0 ****  ****    0 ROOT

########## Name:	9	2003.78
@<TRIPOS>MOLECULE
af2_protein.mol29	
 42 44 1 0 0
SMALL
GASTEIGER


@<TRIPOS>ATOM
      1 P          -2.1259    8.1612   -3.5783 P.3     1  UNL1        0.0544
      2 O          -0.7031    8.3388   -3.9319 O.co2   1  UNL1       -0.6615
      3 O          -2.4232    8.2542   -2.1086 O.co2   1  UNL1       -0.6615
      4 O          -2.7632    6.9952   -4.2334 O.co2   1  UNL1       -0.6615
      5 P          -4.4035   10.2771   -4.0188 P.3     1  UNL1        0.2491
      6 O          -4.1515   10.2042   -2.5490 O.co2   1  UNL1       -0.6337
      7 O          -5.7430    9.8778   -4.5296 O.co2   1  UNL1       -0.6337
      8 O          -2.8947    9.4740   -4.2070 O.3     1  UNL1       -0.0930
      9 O          -4.1069   11.8131   -4.4698 O.3     1  UNL1       -0.2057
     10 C          -4.6831   12.8989   -3.7709 C.3     1  UNL1        0.1232
     11 C          -5.9641   12.3731   -3.1929 C.3     1  UNL1        0.1214
     12 O          -5.6971   12.1378   -1.8064 O.3     1  UNL1       -0.3453
     13 C          -7.1291   13.3984   -3.2554 C.3     1  UNL1        0.1593
     14 O          -8.3889   12.6884   -3.4311 O.3     1  UNL1       -0.2421
     15 P          -8.6621   11.7215   -4.8120 P.3     1  UNL1       -0.0004
     16 O         -10.0213   12.1741   -5.1995 O.co2   1  UNL1       -0.6646
     17 O          -7.5706   12.1465   -5.7251 O.co2   1  UNL1       -0.6646
     18 O          -8.5242   10.3027   -4.3628 O.co2   1  UNL1       -0.6646
     19 C          -7.0360   14.0286   -1.8710 C.3     1  UNL1        0.1329
     20 O          -8.2844   14.6575   -1.5052 O.3     1  UNL1       -0.3845
     21 C          -6.7857   12.7160   -1.1026 C.3     1  UNL1        0.1668
     22 N          -6.2965   12.8408    0.2889 N.ar    1  UNL1       -0.2855
     23 C          -7.0256   12.4155    1.3711 C.ar    1  UNL1        0.1004
     24 N          -6.4426   12.6149    2.5159 N.ar    1  UNL1       -0.2306
     25 C          -5.1949   13.2358    2.1890 C.ar    1  UNL1        0.1473
     26 C          -4.0816   13.6938    3.0154 C.ar    1  UNL1        0.1472
     27 N          -4.1240   13.6746    4.3618 N.pl3   1  UNL1       -0.3413
     28 N          -3.0053   14.2198    2.3736 N.ar    1  UNL1       -0.2188
     29 C          -3.0501   14.3011    1.0357 C.ar    1  UNL1        0.1205
     30 N          -4.0091   13.9309    0.1527 N.ar    1  UNL1       -0.2159
     31 C          -5.0911   13.3814    0.8099 C.ar    1  UNL1        0.1674
     32 H          -4.0173   13.2357   -2.9762 H       1  UNL1        0.0631
     33 H          -4.8908   13.7188   -4.4584 H       1  UNL1        0.0631
     34 H          -6.2499   11.4444   -3.6867 H       1  UNL1        0.0650
     35 H          -6.9559   14.1121   -4.0608 H       1  UNL1        0.0694
     36 H          -6.1943   14.7169   -1.7950 H       1  UNL1        0.0667
     37 H          -7.6619   12.0692   -1.1475 H       1  UNL1        0.0866
     38 H          -7.9985   11.9553    1.2797 H       1  UNL1        0.1030
     39 H          -2.1708   14.7365    0.5845 H       1  UNL1        0.1048
     40 H          -4.0369   12.7990    4.8576 H       1  UNL1        0.1438
     41 H          -4.2432   14.5360    4.8756 H       1  UNL1        0.1438
     42 H          -8.3844   14.6397   -0.5506 H       1  UNL1        0.2101
@<TRIPOS>BOND
     1     1     2    1
     2     1     3    1
     3     1     4    1
     4     1     8    1
     5     5     6    1
     6     5     7    1
     7     5     8    1
     8     5     9    1
     9     9    10    1
    10    10    11    1
    11    11    12    1
    12    11    13    1
    13    12    21    1
    14    13    14    1
    15    13    19    1
    16    14    15    1
    17    15    16    1
    18    15    17    1
    19    15    18    1
    20    19    20    1
    21    19    21    1
    22    21    22    1
    23    22    23   ar
    24    22    31   ar
    25    23    24   ar
    26    24    25   ar
    27    25    26   ar
    28    25    31   ar
    29    26    27    1
    30    26    28   ar
    31    28    29   ar
    32    29    30   ar
    33    30    31   ar
    34    32    10    1
    35    33    10    1
    36    11    34    1
    37    13    35    1
    38    19    36    1
    39    21    37    1
    40    38    23    1
    41    39    29    1
    42    40    27    1
    43    41    27    1
    44    42    20    1
@<TRIPOS>SUBSTRUCTURE
     1 UNL1        1 TEMP              0 ****  ****    0 ROOT

########## Name:	10	2027.49
@<TRIPOS>MOLECULE
af2_protein.mol210	
 42 44 1 0 0
SMALL
GASTEIGER


@<TRIPOS>ATOM
      1 P          -1.2088    8.3116   -2.9277 P.3     1  UNL1        0.0544
      2 O           0.1637    8.6123   -3.3825 O.co2   1  UNL1       -0.6615
      3 O          -1.4343    8.4909   -1.4533 O.co2   1  UNL1       -0.6615
      4 O          -1.7456    7.0344   -3.4525 O.co2   1  UNL1       -0.6615
      5 P          -3.7029   10.1746   -3.3365 P.3     1  UNL1        0.2491
      6 O          -3.3139   10.3004   -1.9005 O.co2   1  UNL1       -0.6337
      7 O          -5.0500    9.6324   -3.6616 O.co2   1  UNL1       -0.6337
      8 O          -2.1533    9.4785   -3.6030 O.3     1  UNL1       -0.0930
      9 O          -3.6277   11.6284   -4.0653 O.3     1  UNL1       -0.2057
     10 C          -4.2272   12.7666   -3.4783 C.3     1  UNL1        0.1232
     11 C          -5.6076   12.3349   -3.0782 C.3     1  UNL1        0.1214
     12 O          -5.5582   12.1396   -1.6610 O.3     1  UNL1       -0.3453
     13 C          -6.6877   13.4193   -3.3421 C.3     1  UNL1        0.1593
     14 O          -7.9491   12.7732   -3.6785 O.3     1  UNL1       -0.2421
     15 P          -8.0914   11.8110   -5.0823 P.3     1  UNL1       -0.0004
     16 O          -9.3430   12.3570   -5.6636 O.co2   1  UNL1       -0.6646
     17 O          -6.8510   12.1431   -5.8286 O.co2   1  UNL1       -0.6646
     18 O          -8.1256   10.3919   -4.6146 O.co2   1  UNL1       -0.6646
     19 C          -6.7579   14.0971   -1.9790 C.3     1  UNL1        0.1329
     20 O          -8.0060   14.8074   -1.8195 O.3     1  UNL1       -0.3845
     21 C          -6.7003   12.8038   -1.1423 C.3     1  UNL1        0.1668
     22 N          -6.4107   12.9559    0.3013 N.ar    1  UNL1       -0.2855
     23 C          -7.3126   12.6139    1.2777 C.ar    1  UNL1        0.1004
     24 N          -6.8902   12.8256    2.4889 N.ar    1  UNL1       -0.2306
     25 C          -5.5733   13.3639    2.3293 C.ar    1  UNL1        0.1473
     26 C          -4.5657   13.7920    3.2953 C.ar    1  UNL1        0.1472
     27 N          -4.8032   13.8279    4.6210 N.pl3   1  UNL1       -0.3413
     28 N          -3.3784   14.2327    2.8022 N.ar    1  UNL1       -0.2188
     29 C          -3.2245   14.2639    1.4703 C.ar    1  UNL1        0.1205
     30 N          -4.0664   13.9127    0.4682 N.ar    1  UNL1       -0.2159
     31 C          -5.2629   13.4495    0.9765 C.ar    1  UNL1        0.1674
     32 H          -3.6642   13.0971   -2.6054 H       1  UNL1        0.0631
     33 H          -4.2839   13.5691   -4.2136 H       1  UNL1        0.0631
     34 H          -5.8742   11.4046   -3.5798 H       1  UNL1        0.0650
     35 H          -6.3754   14.1171   -4.1190 H       1  UNL1        0.0694
     36 H          -5.8998   14.7143   -1.7128 H       1  UNL1        0.0667
     37 H          -7.5981   12.2048   -1.2951 H       1  UNL1        0.0866
     38 H          -8.2879   12.2046    1.0589 H       1  UNL1        0.1030
     39 H          -2.2647   14.6324    1.1396 H       1  UNL1        0.1048
     40 H          -4.8412   12.9689    5.1508 H       1  UNL1        0.1438
     41 H          -4.9434   14.7139    5.0850 H       1  UNL1        0.1438
     42 H          -8.2856   14.7617   -0.9022 H       1  UNL1        0.2101
@<TRIPOS>BOND
     1     1     2    1
     2     1     3    1
     3     1     4    1
     4     1     8    1
     5     5     6    1
     6     5     7    1
     7     5     8    1
     8     5     9    1
     9     9    10    1
    10    10    11    1
    11    11    12    1
    12    11    13    1
    13    12    21    1
    14    13    14    1
    15    13    19    1
    16    14    15    1
    17    15    16    1
    18    15    17    1
    19    15    18    1
    20    19    20    1
    21    19    21    1
    22    21    22    1
    23    22    23   ar
    24    22    31   ar
    25    23    24   ar
    26    24    25   ar
    27    25    26   ar
    28    25    31   ar
    29    26    27    1
    30    26    28   ar
    31    28    29   ar
    32    29    30   ar
    33    30    31   ar
    34    32    10    1
    35    33    10    1
    36    11    34    1
    37    13    35    1
    38    19    36    1
    39    21    37    1
    40    38    23    1
    41    39    29    1
    42    40    27    1
    43    41    27    1
    44    42    20    1
@<TRIPOS>SUBSTRUCTURE
     1 UNL1        1 TEMP              0 ****  ****    0 ROOT

########## Name:	11	2021.37
@<TRIPOS>MOLECULE
af2_protein.mol211	
 42 44 1 0 0
SMALL
GASTEIGER


@<TRIPOS>ATOM
      1 P          -2.3137    8.5370   -2.9616 P.3     1  UNL1        0.0544
      2 O          -3.3130    7.4762   -3.2003 O.co2   1  UNL1       -0.6615
      3 O          -1.1481    8.5254   -3.9093 O.co2   1  UNL1       -0.6615
      4 O          -1.9142    8.6726   -1.5414 O.co2   1  UNL1       -0.6615
      5 P          -2.6601   11.5659   -3.7131 P.3     1  UNL1        0.2491
      6 O          -2.0992   12.7309   -2.9665 O.co2   1  UNL1       -0.6337
      7 O          -3.0937   10.3704   -2.9404 O.co2   1  UNL1       -0.6337
      8 O          -3.0847    9.9461   -3.3220 O.3     1  UNL1       -0.0930
      9 O          -3.9269   12.1240   -4.5700 O.3     1  UNL1       -0.2057
     10 C          -4.9334   12.9029   -3.9539 C.3     1  UNL1        0.1232
     11 C          -5.8449   11.9223   -3.2761 C.3     1  UNL1        0.1214
     12 O          -5.4269   11.8851   -1.9075 O.3     1  UNL1       -0.3453
     13 C          -7.3323   12.3691   -3.2767 C.3     1  UNL1        0.1593
     14 O          -8.1900   11.1938   -3.3484 O.3     1  UNL1       -0.2421
     15 P          -8.1477   10.1625   -4.7090 P.3     1  UNL1       -0.0004
     16 O          -9.5989    9.9768   -4.9579 O.co2   1  UNL1       -0.6646
     17 O          -7.4343   10.9872   -5.7174 O.co2   1  UNL1       -0.6646
     18 O          -7.3726    8.9540   -4.2936 O.co2   1  UNL1       -0.6646
     19 C          -7.4326   13.0467   -1.9154 C.3     1  UNL1        0.1329
     20 O          -8.8068   13.1191   -1.4749 O.3     1  UNL1       -0.3845
     21 C          -6.6161   11.9938   -1.1403 C.3     1  UNL1        0.1668
     22 N          -6.1462   12.3762    0.2103 N.ar    1  UNL1       -0.2855
     23 C          -6.5703   11.7394    1.3498 C.ar    1  UNL1        0.1004
     24 N          -6.0600   12.2168    2.4462 N.ar    1  UNL1       -0.2306
     25 C          -5.2044   13.2821    2.0193 C.ar    1  UNL1        0.1473
     26 C          -4.3384   14.1987    2.7554 C.ar    1  UNL1        0.1472
     27 N          -4.2936   14.2280    4.1016 N.pl3   1  UNL1       -0.3413
     28 N          -3.6165   15.0917    2.0285 N.ar    1  UNL1       -0.2188
     29 C          -3.7659   15.0832    0.6958 C.ar    1  UNL1        0.1205
     30 N          -4.5316   14.3075   -0.1094 N.ar    1  UNL1       -0.2159
     31 C          -5.2480   13.3915    0.6337 C.ar    1  UNL1        0.1674
     32 H          -4.4249   13.5226   -3.2153 H       1  UNL1        0.0631
     33 H          -5.5016   13.5294   -4.6413 H       1  UNL1        0.0631
     34 H          -5.7453   10.9361   -3.7297 H       1  UNL1        0.0650
     35 H          -7.5406   13.0670   -4.0876 H       1  UNL1        0.0694
     36 H          -6.9497   14.0238   -1.9091 H       1  UNL1        0.0667
     37 H          -7.1446   11.0410   -1.1099 H       1  UNL1        0.0866
     38 H          -7.2668   10.9141    1.3368 H       1  UNL1        0.1030
     39 H          -3.1743   15.8214    0.1748 H       1  UNL1        0.1048
     40 H          -3.8223   13.4919    4.6075 H       1  UNL1        0.1438
     41 H          -4.7315   14.9863    4.6050 H       1  UNL1        0.1438
     42 H          -8.8370   13.1034   -0.5155 H       1  UNL1        0.2101
@<TRIPOS>BOND
     1     1     2    1
     2     1     3    1
     3     1     4    1
     4     1     8    1
     5     5     6    1
     6     5     7    1
     7     5     8    1
     8     5     9    1
     9     9    10    1
    10    10    11    1
    11    11    12    1
    12    11    13    1
    13    12    21    1
    14    13    14    1
    15    13    19    1
    16    14    15    1
    17    15    16    1
    18    15    17    1
    19    15    18    1
    20    19    20    1
    21    19    21    1
    22    21    22    1
    23    22    23   ar
    24    22    31   ar
    25    23    24   ar
    26    24    25   ar
    27    25    26   ar
    28    25    31   ar
    29    26    27    1
    30    26    28   ar
    31    28    29   ar
    32    29    30   ar
    33    30    31   ar
    34    32    10    1
    35    33    10    1
    36    11    34    1
    37    13    35    1
    38    19    36    1
    39    21    37    1
    40    38    23    1
    41    39    29    1
    42    40    27    1
    43    41    27    1
    44    42    20    1
@<TRIPOS>SUBSTRUCTURE
     1 UNL1        1 TEMP              0 ****  ****    0 ROOT

########## Name:	12	2078.33
@<TRIPOS>MOLECULE
af2_protein.mol212	
 42 44 1 0 0
SMALL
GASTEIGER


@<TRIPOS>ATOM
      1 P          -0.2584    9.6552   -3.8005 P.3     1  UNL1        0.0544
      2 O           0.3764    9.5581   -5.1305 O.co2   1  UNL1       -0.6615
      3 O           0.3938   10.6324   -2.8642 O.co2   1  UNL1       -0.6615
      4 O          -0.5397    8.3418   -3.1756 O.co2   1  UNL1       -0.6615
      5 P          -2.9629   11.1212   -3.1717 P.3     1  UNL1        0.2491
      6 O          -2.5893   12.0198   -2.0394 O.co2   1  UNL1       -0.6337
      7 O          -3.7686    9.9055   -2.8765 O.co2   1  UNL1       -0.6337
      8 O          -1.7389   10.3202   -4.0757 O.3     1  UNL1       -0.0930
      9 O          -3.7854   11.9878   -4.2776 O.3     1  UNL1       -0.2057
     10 C          -4.8688   12.8118   -3.8946 C.3     1  UNL1        0.1232
     11 C          -5.9044   11.8824   -3.3331 C.3     1  UNL1        0.1214
     12 O          -5.6229   11.7874   -1.9328 O.3     1  UNL1       -0.3453
     13 C          -7.3518   12.4310   -3.4613 C.3     1  UNL1        0.1593
     14 O          -8.2753   11.3196   -3.6459 O.3     1  UNL1       -0.2421
     15 P          -8.2695   10.4091   -5.0908 P.3     1  UNL1       -0.0004
     16 O          -9.7203   10.3790   -5.4020 O.co2   1  UNL1       -0.6646
     17 O          -7.4461   11.2483   -5.9982 O.co2   1  UNL1       -0.6646
     18 O          -7.6217    9.1035   -4.7596 O.co2   1  UNL1       -0.6646
     19 C          -7.5365   13.0848   -2.0972 C.3     1  UNL1        0.1329
     20 O          -8.9387   13.2427   -1.7862 O.3     1  UNL1       -0.3845
     21 C          -6.8702   11.9617   -1.2782 C.3     1  UNL1        0.1668
     22 N          -6.5073   12.2820    0.1207 N.ar    1  UNL1       -0.2855
     23 C          -6.9998   11.5805    1.1927 C.ar    1  UNL1        0.1004
     24 N          -6.5802   12.0093    2.3461 N.ar    1  UNL1       -0.2306
     25 C          -5.7179   13.1093    2.0371 C.ar    1  UNL1        0.1473
     26 C          -4.9264   14.0012    2.8798 C.ar    1  UNL1        0.1472
     27 N          -4.9798   13.9621    4.2254 N.pl3   1  UNL1       -0.3413
     28 N          -4.1721   14.9424    2.2534 N.ar    1  UNL1       -0.2188
     29 C          -4.2243   14.9999    0.9146 C.ar    1  UNL1        0.1205
     30 N          -4.9136   14.2539    0.0175 N.ar    1  UNL1       -0.2159
     31 C          -5.6632   13.2891    0.6592 C.ar    1  UNL1        0.1674
     32 H          -4.3931   13.3791   -3.0946 H       1  UNL1        0.0631
     33 H          -5.3254   13.4906   -4.6149 H       1  UNL1        0.0631
     34 H          -5.8280   10.9016   -3.8024 H       1  UNL1        0.0650
     35 H          -7.5048   13.2075   -4.2106 H       1  UNL1        0.0694
     36 H          -7.0196   14.0429   -2.1505 H       1  UNL1        0.0667
     37 H          -7.3800   10.9999   -1.3344 H       1  UNL1        0.0866
     38 H          -7.6765   10.7454    1.0873 H       1  UNL1        0.1030
     39 H          -3.6117   15.7737    0.4761 H       1  UNL1        0.1048
     40 H          -4.5315   13.2088    4.7270 H       1  UNL1        0.1438
     41 H          -5.4684   14.6860    4.7325 H       1  UNL1        0.1438
     42 H          -9.0483   13.3298   -0.8364 H       1  UNL1        0.2101
@<TRIPOS>BOND
     1     1     2    1
     2     1     3    1
     3     1     4    1
     4     1     8    1
     5     5     6    1
     6     5     7    1
     7     5     8    1
     8     5     9    1
     9     9    10    1
    10    10    11    1
    11    11    12    1
    12    11    13    1
    13    12    21    1
    14    13    14    1
    15    13    19    1
    16    14    15    1
    17    15    16    1
    18    15    17    1
    19    15    18    1
    20    19    20    1
    21    19    21    1
    22    21    22    1
    23    22    23   ar
    24    22    31   ar
    25    23    24   ar
    26    24    25   ar
    27    25    26   ar
    28    25    31   ar
    29    26    27    1
    30    26    28   ar
    31    28    29   ar
    32    29    30   ar
    33    30    31   ar
    34    32    10    1
    35    33    10    1
    36    11    34    1
    37    13    35    1
    38    19    36    1
    39    21    37    1
    40    38    23    1
    41    39    29    1
    42    40    27    1
    43    41    27    1
    44    42    20    1
@<TRIPOS>SUBSTRUCTURE
     1 UNL1        1 TEMP              0 ****  ****    0 ROOT

########## Name:	13	2011.9
@<TRIPOS>MOLECULE
af2_protein.mol213	
 42 44 1 0 0
SMALL
GASTEIGER


@<TRIPOS>ATOM
      1 P          -1.7857    8.3201   -2.7454 P.3     1  UNL1        0.0544
      2 O          -2.7752    7.4342   -2.0996 O.co2   1  UNL1       -0.6615
      3 O          -1.2253    7.7977   -4.0377 O.co2   1  UNL1       -0.6615
      4 O          -0.7481    8.8317   -1.8199 O.co2   1  UNL1       -0.6615
      5 P          -2.4539   10.9574   -4.3130 P.3     1  UNL1        0.2491
      6 O          -1.6206   12.1958   -4.2798 O.co2   1  UNL1       -0.6337
      7 O          -2.4726   10.0825   -3.1094 O.co2   1  UNL1       -0.6337
      8 O          -2.6353    9.6519   -3.2086 O.3     1  UNL1       -0.0930
      9 O          -3.9775   11.4261   -4.6440 O.3     1  UNL1       -0.2057
     10 C          -4.5917   12.4681   -3.9117 C.3     1  UNL1        0.1232
     11 C          -5.8197   11.8616   -3.2988 C.3     1  UNL1        0.1214
     12 O          -5.5345   11.7343   -1.9018 O.3     1  UNL1       -0.3453
     13 C          -7.0743   12.7695   -3.4174 C.3     1  UNL1        0.1593
     14 O          -8.2628   11.9371   -3.5461 O.3     1  UNL1       -0.2421
     15 P          -8.4657   10.9050   -4.8915 P.3     1  UNL1       -0.0004
     16 O          -9.8605   11.2310   -5.2797 O.co2   1  UNL1       -0.6646
     17 O          -7.4199   11.3873   -5.8293 O.co2   1  UNL1       -0.6646
     18 O          -8.2078    9.5183   -4.3972 O.co2   1  UNL1       -0.6646
     19 C          -7.0421   13.4864   -2.0731 C.3     1  UNL1        0.1329
     20 O          -8.3439   14.0180   -1.7404 O.3     1  UNL1       -0.3845
     21 C          -6.6730   12.2503   -1.2294 C.3     1  UNL1        0.1668
     22 N          -6.1999   12.5018    0.1505 N.ar    1  UNL1       -0.2855
     23 C          -6.8111   11.9598    1.2534 C.ar    1  UNL1        0.1004
     24 N          -6.2648   12.2983    2.3835 N.ar    1  UNL1       -0.2306
     25 C          -5.1752   13.1537    2.0228 C.ar    1  UNL1        0.1473
     26 C          -4.1674   13.8467    2.8203 C.ar    1  UNL1        0.1472
     27 N          -4.1858   13.8479    4.1674 N.pl3   1  UNL1       -0.3413
     28 N          -3.2307   14.5676    2.1495 N.ar    1  UNL1       -0.2188
     29 C          -3.3102   14.6096    0.8114 C.ar    1  UNL1        0.1205
     30 N          -4.1858   14.0328   -0.0471 N.ar    1  UNL1       -0.2159
     31 C          -5.1231   13.2881    0.6396 C.ar    1  UNL1        0.1674
     32 H          -3.9612   12.9114   -3.1408 H       1  UNL1        0.0631
     33 H          -4.8730   13.2232   -4.6456 H       1  UNL1        0.0631
     34 H          -6.0177   10.8828   -3.7358 H       1  UNL1        0.0650
     35 H          -6.9844   13.4704   -4.2472 H       1  UNL1        0.0694
     36 H          -6.2670   14.2518   -2.0370 H       1  UNL1        0.0667
     37 H          -7.3991   11.4375   -1.2466 H       1  UNL1        0.0866
     38 H          -7.6705   11.3089    1.1880 H       1  UNL1        0.1030
     39 H          -2.5450   15.2056    0.3365 H       1  UNL1        0.1048
     40 H          -3.9144   13.0193    4.6770 H       1  UNL1        0.1438
     41 H          -4.4712   14.6776    4.6677 H       1  UNL1        0.1438
     42 H          -8.4449   14.0441   -0.7861 H       1  UNL1        0.2101
@<TRIPOS>BOND
     1     1     2    1
     2     1     3    1
     3     1     4    1
     4     1     8    1
     5     5     6    1
     6     5     7    1
     7     5     8    1
     8     5     9    1
     9     9    10    1
    10    10    11    1
    11    11    12    1
    12    11    13    1
    13    12    21    1
    14    13    14    1
    15    13    19    1
    16    14    15    1
    17    15    16    1
    18    15    17    1
    19    15    18    1
    20    19    20    1
    21    19    21    1
    22    21    22    1
    23    22    23   ar
    24    22    31   ar
    25    23    24   ar
    26    24    25   ar
    27    25    26   ar
    28    25    31   ar
    29    26    27    1
    30    26    28   ar
    31    28    29   ar
    32    29    30   ar
    33    30    31   ar
    34    32    10    1
    35    33    10    1
    36    11    34    1
    37    13    35    1
    38    19    36    1
    39    21    37    1
    40    38    23    1
    41    39    29    1
    42    40    27    1
    43    41    27    1
    44    42    20    1
@<TRIPOS>SUBSTRUCTURE
     1 UNL1        1 TEMP              0 ****  ****    0 ROOT

########## Name:	14	2000.9
@<TRIPOS>MOLECULE
af2_protein.mol214	
 42 44 1 0 0
SMALL
GASTEIGER


@<TRIPOS>ATOM
      1 P          -3.0821    8.1416   -3.1905 P.3     1  UNL1        0.0544
      2 O          -4.1783    7.2710   -3.6610 O.co2   1  UNL1       -0.6615
      3 O          -1.8072    8.0249   -3.9766 O.co2   1  UNL1       -0.6615
      4 O          -2.8734    8.0998   -1.7243 O.co2   1  UNL1       -0.6615
      5 P          -2.8820   11.2377   -3.6730 P.3     1  UNL1        0.2491
      6 O          -2.0359   12.1444   -2.8416 O.co2   1  UNL1       -0.6337
      7 O          -3.7155   10.2155   -2.9840 O.co2   1  UNL1       -0.6337
      8 O          -3.5847    9.6774   -3.5042 O.3     1  UNL1       -0.0930
      9 O          -3.9825   12.0916   -4.5156 O.3     1  UNL1       -0.2057
     10 C          -4.7645   13.0880   -3.8869 C.3     1  UNL1        0.1232
     11 C          -5.9067   12.3584   -3.2429 C.3     1  UNL1        0.1214
     12 O          -5.5688   12.2546   -1.8558 O.3     1  UNL1       -0.3453
     13 C          -7.2490   13.1361   -3.3184 C.3     1  UNL1        0.1593
     14 O          -8.3513   12.1889   -3.4185 O.3     1  UNL1       -0.2421
     15 P          -8.5208   11.1867   -4.7908 P.3     1  UNL1       -0.0004
     16 O          -9.9845   11.2779   -5.0182 O.co2   1  UNL1       -0.6646
     17 O          -7.6803   11.8779   -5.8015 O.co2   1  UNL1       -0.6646
     18 O          -7.9789    9.8494   -4.4013 O.co2   1  UNL1       -0.6646
     19 C          -7.2491   13.8469   -1.9705 C.3     1  UNL1        0.1329
     20 O          -8.5872   14.2435   -1.5963 O.3     1  UNL1       -0.3845
     21 C          -6.7329   12.6506   -1.1468 C.3     1  UNL1        0.1668
     22 N          -6.2466   12.9426    0.2204 N.ar    1  UNL1       -0.2855
     23 C          -7.0094   12.7236    1.3403 C.ar    1  UNL1        0.1004
     24 N          -6.4229   13.0481    2.4543 N.ar    1  UNL1       -0.2306
     25 C          -5.1353   13.5359    2.0625 C.ar    1  UNL1        0.1473
     26 C          -4.0008   14.0366    2.8332 C.ar    1  UNL1        0.1472
     27 N          -4.0539   14.2135    4.1677 N.pl3   1  UNL1       -0.3413
     28 N          -2.8881   14.3964    2.1405 N.ar    1  UNL1       -0.2188
     29 C          -2.9180   14.2876    0.8041 C.ar    1  UNL1        0.1205
     30 N          -3.8926   13.8557   -0.0325 N.ar    1  UNL1       -0.2159
     31 C          -5.0125   13.4754    0.6786 C.ar    1  UNL1        0.1674
     32 H          -4.1591   13.5891   -3.1316 H       1  UNL1        0.0631
     33 H          -5.1419   13.8141   -4.6069 H       1  UNL1        0.0631
     34 H          -6.0183   11.3665   -3.6810 H       1  UNL1        0.0650
     35 H          -7.2771   13.8698   -4.1240 H       1  UNL1        0.0694
     36 H          -6.5556   14.6877   -1.9589 H       1  UNL1        0.0667
     37 H          -7.6487   12.0605   -1.1132 H       1  UNL1        0.0866
     38 H          -8.0093   12.3173    1.2996 H       1  UNL1        0.1030
     39 H          -2.0092   14.5976    0.3099 H       1  UNL1        0.1048
     40 H          -4.0270   13.4143    4.7846 H       1  UNL1        0.1438
     41 H          -4.1208   15.1454    4.5512 H       1  UNL1        0.1438
     42 H          -8.6600   14.2618   -0.6392 H       1  UNL1        0.2101
@<TRIPOS>BOND
     1     1     2    1
     2     1     3    1
     3     1     4    1
     4     1     8    1
     5     5     6    1
     6     5     7    1
     7     5     8    1
     8     5     9    1
     9     9    10    1
    10    10    11    1
    11    11    12    1
    12    11    13    1
    13    12    21    1
    14    13    14    1
    15    13    19    1
    16    14    15    1
    17    15    16    1
    18    15    17    1
    19    15    18    1
    20    19    20    1
    21    19    21    1
    22    21    22    1
    23    22    23   ar
    24    22    31   ar
    25    23    24   ar
    26    24    25   ar
    27    25    26   ar
    28    25    31   ar
    29    26    27    1
    30    26    28   ar
    31    28    29   ar
    32    29    30   ar
    33    30    31   ar
    34    32    10    1
    35    33    10    1
    36    11    34    1
    37    13    35    1
    38    19    36    1
    39    21    37    1
    40    38    23    1
    41    39    29    1
    42    40    27    1
    43    41    27    1
    44    42    20    1
@<TRIPOS>SUBSTRUCTURE
     1 UNL1        1 TEMP              0 ****  ****    0 ROOT

########## Name:	15	2029.38
@<TRIPOS>MOLECULE
af2_protein.mol215	
 42 44 1 0 0
SMALL
GASTEIGER


@<TRIPOS>ATOM
      1 P          -2.2564    8.5210   -3.2052 P.3     1  UNL1        0.0544
      2 O          -1.6203    8.4616   -1.8737 O.co2   1  UNL1       -0.6615
      3 O          -3.6145    7.8833   -3.2804 O.co2   1  UNL1       -0.6615
      4 O          -1.3586    8.1228   -4.3144 O.co2   1  UNL1       -0.6615
      5 P          -3.5219   11.0704   -4.5312 P.3     1  UNL1        0.2491
      6 O          -4.7699   10.2561   -4.4384 O.co2   1  UNL1       -0.6337
      7 O          -2.9981   11.4144   -5.8808 O.co2   1  UNL1       -0.6337
      8 O          -2.5690   10.1164   -3.4640 O.3     1  UNL1       -0.0930
      9 O          -3.7987   12.4482   -3.7093 O.3     1  UNL1       -0.2057
     10 C          -4.9611   13.2163   -3.9507 C.3     1  UNL1        0.1232
     11 C          -6.1002   12.4089   -3.4010 C.3     1  UNL1        0.1214
     12 O          -5.7657   12.1453   -2.0344 O.3     1  UNL1       -0.3453
     13 C          -7.4475   13.1814   -3.3898 C.3     1  UNL1        0.1593
     14 O          -8.5430   12.2455   -3.6044 O.3     1  UNL1       -0.2421
     15 P          -8.6975   11.4045   -5.0828 P.3     1  UNL1       -0.0004
     16 O         -10.1423   11.5997   -5.3599 O.co2   1  UNL1       -0.6646
     17 O          -7.7763   12.1513   -5.9769 O.co2   1  UNL1       -0.6646
     18 O          -8.2426   10.0058   -4.8175 O.co2   1  UNL1       -0.6646
     19 C          -7.4565   13.7292   -1.9678 C.3     1  UNL1        0.1329
     20 O          -8.7984   14.0705   -1.5547 O.3     1  UNL1       -0.3845
     21 C          -6.9346   12.4479   -1.2882 C.3     1  UNL1        0.1668
     22 N          -6.4543   12.5805    0.1057 N.ar    1  UNL1       -0.2855
     23 C          -7.1158   12.0261    1.1728 C.ar    1  UNL1        0.1004
     24 N          -6.5538   12.2539    2.3228 N.ar    1  UNL1       -0.2306
     25 C          -5.3967   13.0392    2.0165 C.ar    1  UNL1        0.1473
     26 C          -4.3437   13.6022    2.8568 C.ar    1  UNL1        0.1472
     27 N          -4.3730   13.5270    4.2016 N.pl3   1  UNL1       -0.3413
     28 N          -3.3471   14.2836    2.2326 N.ar    1  UNL1       -0.2188
     29 C          -3.4120   14.4092    0.8989 C.ar    1  UNL1        0.1205
     30 N          -4.3235   13.9547    0.0051 N.ar    1  UNL1       -0.2159
     31 C          -5.3226   13.2488    0.6438 C.ar    1  UNL1        0.1674
     32 H          -4.3614   13.6293   -3.1395 H       1  UNL1        0.0631
     33 H          -5.3413   14.0194   -4.5820 H       1  UNL1        0.0631
     34 H          -6.2037   11.4746   -3.9529 H       1  UNL1        0.0650
     35 H          -7.4753   14.0017   -4.1070 H       1  UNL1        0.0694
     36 H          -6.7672   14.5649   -1.8479 H       1  UNL1        0.0667
     37 H          -7.7227   11.6979   -1.3554 H       1  UNL1        0.0866
     38 H          -8.0237   11.4508    1.0665 H       1  UNL1        0.1030
     39 H          -2.5979   14.9688    0.4624 H       1  UNL1        0.1048
     40 H          -4.1725   12.6512    4.6630 H       1  UNL1        0.1438
     41 H          -4.5957   14.3464    4.7484 H       1  UNL1        0.1438
     42 H          -8.8760   13.9694   -0.6031 H       1  UNL1        0.2101
@<TRIPOS>BOND
     1     1     2    1
     2     1     3    1
     3     1     4    1
     4     1     8    1
     5     5     6    1
     6     5     7    1
     7     5     8    1
     8     5     9    1
     9     9    10    1
    10    10    11    1
    11    11    12    1
    12    11    13    1
    13    12    21    1
    14    13    14    1
    15    13    19    1
    16    14    15    1
    17    15    16    1
    18    15    17    1
    19    15    18    1
    20    19    20    1
    21    19    21    1
    22    21    22    1
    23    22    23   ar
    24    22    31   ar
    25    23    24   ar
    26    24    25   ar
    27    25    26   ar
    28    25    31   ar
    29    26    27    1
    30    26    28   ar
    31    28    29   ar
    32    29    30   ar
    33    30    31   ar
    34    32    10    1
    35    33    10    1
    36    11    34    1
    37    13    35    1
    38    19    36    1
    39    21    37    1
    40    38    23    1
    41    39    29    1
    42    40    27    1
    43    41    27    1
    44    42    20    1
@<TRIPOS>SUBSTRUCTURE
     1 UNL1        1 TEMP              0 ****  ****    0 ROOT

########## Name:	16	2042.69
@<TRIPOS>MOLECULE
af2_protein.mol216	
 42 44 1 0 0
SMALL
GASTEIGER


@<TRIPOS>ATOM
      1 P          -0.7188    8.5480   -4.5298 P.3     1  UNL1        0.0544
      2 O           0.1417    8.8742   -5.6849 O.co2   1  UNL1       -0.6615
      3 O          -0.2156    9.0575   -3.2092 O.co2   1  UNL1       -0.6615
      4 O          -1.1492    7.1310   -4.4868 O.co2   1  UNL1       -0.6615
      5 P          -3.4369    9.9557   -3.8302 P.3     1  UNL1        0.2491
      6 O          -2.5574   10.4617   -2.7349 O.co2   1  UNL1       -0.6337
      7 O          -4.5917    9.0893   -3.4696 O.co2   1  UNL1       -0.6337
      8 O          -2.1040    9.4053   -4.7669 O.3     1  UNL1       -0.0930
      9 O          -3.9725   11.2752   -4.6191 O.3     1  UNL1       -0.2057
     10 C          -4.5464   12.3588   -3.9150 C.3     1  UNL1        0.1232
     11 C          -5.8031   11.8191   -3.2976 C.3     1  UNL1        0.1214
     12 O          -5.5245   11.6895   -1.8995 O.3     1  UNL1       -0.3453
     13 C          -7.0110   12.7872   -3.4242 C.3     1  UNL1        0.1593
     14 O          -8.2394   12.0139   -3.5465 O.3     1  UNL1       -0.2421
     15 P          -8.4934   10.9820   -4.8833 P.3     1  UNL1       -0.0004
     16 O          -9.8643   11.3847   -5.2844 O.co2   1  UNL1       -0.6646
     17 O          -7.4152   11.3933   -5.8183 O.co2   1  UNL1       -0.6646
     18 O          -8.3198    9.5876   -4.3740 O.co2   1  UNL1       -0.6646
     19 C          -6.9432   13.5129   -2.0859 C.3     1  UNL1        0.1329
     20 O          -8.2169   14.1112   -1.7581 O.3     1  UNL1       -0.3845
     21 C          -6.6360   12.2670   -1.2318 C.3     1  UNL1        0.1668
     22 N          -6.1509   12.5061    0.1461 N.ar    1  UNL1       -0.2855
     23 C          -6.7572   11.9604    1.2499 C.ar    1  UNL1        0.1004
     24 N          -6.2003   12.2878    2.3782 N.ar    1  UNL1       -0.2306
     25 C          -5.1081   13.1389    2.0150 C.ar    1  UNL1        0.1473
     26 C          -4.0900   13.8201    2.8095 C.ar    1  UNL1        0.1472
     27 N          -4.0982   13.8122    4.1567 N.pl3   1  UNL1       -0.3413
     28 N          -3.1538   14.5397    2.1365 N.ar    1  UNL1       -0.2188
     29 C          -3.2432   14.5913    0.7994 C.ar    1  UNL1        0.1205
     30 N          -4.1288   14.0258   -0.0563 N.ar    1  UNL1       -0.2159
     31 C          -5.0655   13.2823    0.6324 C.ar    1  UNL1        0.1674
     32 H          -3.8947   12.7766   -3.1476 H       1  UNL1        0.0631
     33 H          -4.7899   13.1208   -4.6553 H       1  UNL1        0.0631
     34 H          -6.0494   10.8478   -3.7265 H       1  UNL1        0.0650
     35 H          -6.8864   13.4759   -4.2598 H       1  UNL1        0.0694
     36 H          -6.1310   14.2391   -2.0558 H       1  UNL1        0.0667
     37 H          -7.3672   11.4588   -1.2490 H       1  UNL1        0.0866
     38 H          -7.6211   11.3153    1.1867 H       1  UNL1        0.1030
     39 H          -2.4778   15.1858    0.3227 H       1  UNL1        0.1048
     40 H          -3.8281   12.9785    4.6587 H       1  UNL1        0.1438
     41 H          -4.3746   14.6402    4.6647 H       1  UNL1        0.1438
     42 H          -8.3165   14.1502   -0.8041 H       1  UNL1        0.2101
@<TRIPOS>BOND
     1     1     2    1
     2     1     3    1
     3     1     4    1
     4     1     8    1
     5     5     6    1
     6     5     7    1
     7     5     8    1
     8     5     9    1
     9     9    10    1
    10    10    11    1
    11    11    12    1
    12    11    13    1
    13    12    21    1
    14    13    14    1
    15    13    19    1
    16    14    15    1
    17    15    16    1
    18    15    17    1
    19    15    18    1
    20    19    20    1
    21    19    21    1
    22    21    22    1
    23    22    23   ar
    24    22    31   ar
    25    23    24   ar
    26    24    25   ar
    27    25    26   ar
    28    25    31   ar
    29    26    27    1
    30    26    28   ar
    31    28    29   ar
    32    29    30   ar
    33    30    31   ar
    34    32    10    1
    35    33    10    1
    36    11    34    1
    37    13    35    1
    38    19    36    1
    39    21    37    1
    40    38    23    1
    41    39    29    1
    42    40    27    1
    43    41    27    1
    44    42    20    1
@<TRIPOS>SUBSTRUCTURE
     1 UNL1        1 TEMP              0 ****  ****    0 ROOT

########## Name:	17	2040.52
@<TRIPOS>MOLECULE
af2_protein.mol217	
 42 44 1 0 0
SMALL
GASTEIGER


@<TRIPOS>ATOM
      1 P          -2.6872    7.6086   -3.2498 P.3     1  UNL1        0.0544
      2 O          -3.8337    6.8162   -3.7382 O.co2   1  UNL1       -0.6615
      3 O          -1.4870    7.5977   -4.1534 O.co2   1  UNL1       -0.6615
      4 O          -2.3534    7.3624   -1.8276 O.co2   1  UNL1       -0.6615
      5 P          -2.4794   10.7401   -3.3493 P.3     1  UNL1        0.2491
      6 O          -1.4220   11.6567   -2.8288 O.co2   1  UNL1       -0.6337
      7 O          -3.1568    9.8231   -2.3930 O.co2   1  UNL1       -0.6337
      8 O          -3.1905    9.1751   -3.3027 O.3     1  UNL1       -0.0930
      9 O          -3.6033   11.6776   -4.0623 O.3     1  UNL1       -0.2057
     10 C          -4.1455   12.7981   -3.3917 C.3     1  UNL1        0.1232
     11 C          -5.5526   12.4151   -3.0380 C.3     1  UNL1        0.1214
     12 O          -5.5548   12.2088   -1.6215 O.3     1  UNL1       -0.3453
     13 C          -6.5833   13.5406   -3.3267 C.3     1  UNL1        0.1593
     14 O          -7.8566   12.9438   -3.7071 O.3     1  UNL1       -0.2421
     15 P          -7.9988   12.0276   -5.1413 P.3     1  UNL1       -0.0004
     16 O          -9.2209   12.6286   -5.7310 O.co2   1  UNL1       -0.6646
     17 O          -6.7337   12.3425   -5.8526 O.co2   1  UNL1       -0.6646
     18 O          -8.0858   10.5972   -4.7167 O.co2   1  UNL1       -0.6646
     19 C          -6.6711   14.2114   -1.9612 C.3     1  UNL1        0.1329
     20 O          -7.8966   14.9663   -1.8349 O.3     1  UNL1       -0.3845
     21 C          -6.6874   12.9113   -1.1333 C.3     1  UNL1        0.1668
     22 N          -6.4376   13.0429    0.3198 N.ar    1  UNL1       -0.2855
     23 C          -7.3816   12.7280    1.2650 C.ar    1  UNL1        0.1004
     24 N          -6.9898   12.9159    2.4903 N.ar    1  UNL1       -0.2306
     25 C          -5.6497   13.4061    2.3759 C.ar    1  UNL1        0.1473
     26 C          -4.6577   13.7902    3.3760 C.ar    1  UNL1        0.1472
     27 N          -4.9350   13.8260    4.6939 N.pl3   1  UNL1       -0.3413
     28 N          -3.4401   14.1899    2.9234 N.ar    1  UNL1       -0.2188
     29 C          -3.2436   14.2243    1.5972 C.ar    1  UNL1        0.1205
     30 N          -4.0661   13.9111    0.5667 N.ar    1  UNL1       -0.2159
     31 C          -5.2942   13.4892    1.0340 C.ar    1  UNL1        0.1674
     32 H          -3.5983   13.1018   -2.4992 H       1  UNL1        0.0631
     33 H          -4.1496   13.6071   -4.1221 H       1  UNL1        0.0631
     34 H          -5.8375   11.4987   -3.5549 H       1  UNL1        0.0650
     35 H          -6.2340   14.2505   -4.0763 H       1  UNL1        0.0694
     36 H          -5.8001   14.7933   -1.6600 H       1  UNL1        0.0667
     37 H          -7.6014   12.3469   -1.3185 H       1  UNL1        0.0866
     38 H          -8.3640   12.3565    1.0129 H       1  UNL1        0.1030
     39 H          -2.2610   14.5593    1.2993 H       1  UNL1        0.1048
     40 H          -5.0212   12.9655    5.2156 H       1  UNL1        0.1438
     41 H          -5.0570   14.7135    5.1603 H       1  UNL1        0.1438
     42 H          -8.2081   14.9220   -0.9279 H       1  UNL1        0.2101
@<TRIPOS>BOND
     1     1     2    1
     2     1     3    1
     3     1     4    1
     4     1     8    1
     5     5     6    1
     6     5     7    1
     7     5     8    1
     8     5     9    1
     9     9    10    1
    10    10    11    1
    11    11    12    1
    12    11    13    1
    13    12    21    1
    14    13    14    1
    15    13    19    1
    16    14    15    1
    17    15    16    1
    18    15    17    1
    19    15    18    1
    20    19    20    1
    21    19    21    1
    22    21    22    1
    23    22    23   ar
    24    22    31   ar
    25    23    24   ar
    26    24    25   ar
    27    25    26   ar
    28    25    31   ar
    29    26    27    1
    30    26    28   ar
    31    28    29   ar
    32    29    30   ar
    33    30    31   ar
    34    32    10    1
    35    33    10    1
    36    11    34    1
    37    13    35    1
    38    19    36    1
    39    21    37    1
    40    38    23    1
    41    39    29    1
    42    40    27    1
    43    41    27    1
    44    42    20    1
@<TRIPOS>SUBSTRUCTURE
     1 UNL1        1 TEMP              0 ****  ****    0 ROOT

########## Name:	18	2010.88
@<TRIPOS>MOLECULE
af2_protein.mol218	
 42 44 1 0 0
SMALL
GASTEIGER


@<TRIPOS>ATOM
      1 P          -2.7170    8.3391   -3.3073 P.3     1  UNL1        0.0544
      2 O          -3.5376    7.4371   -4.1403 O.co2   1  UNL1       -0.6615
      3 O          -1.2940    8.4928   -3.7637 O.co2   1  UNL1       -0.6615
      4 O          -2.8430    8.0882   -1.8526 O.co2   1  UNL1       -0.6615
      5 P          -2.8699   11.4752   -3.3260 P.3     1  UNL1        0.2491
      6 O          -2.4119   12.4522   -2.2941 O.co2   1  UNL1       -0.6337
      7 O          -3.6356   10.2796   -2.8805 O.co2   1  UNL1       -0.6337
      8 O          -3.3555    9.8390   -3.5361 O.3     1  UNL1       -0.0930
      9 O          -3.7737   12.3090   -4.3930 O.3     1  UNL1       -0.2057
     10 C          -4.8171   13.1565   -3.9544 C.3     1  UNL1        0.1232
     11 C          -5.8607   12.2463   -3.3763 C.3     1  UNL1        0.1214
     12 O          -5.4967   12.0595   -2.0045 O.3     1  UNL1       -0.3453
     13 C          -7.2839   12.8681   -3.3798 C.3     1  UNL1        0.1593
     14 O          -8.2718   11.8132   -3.5623 O.3     1  UNL1       -0.2421
     15 P          -8.3180   10.8987   -5.0039 P.3     1  UNL1       -0.0004
     16 O          -9.7660   10.9622   -5.3229 O.co2   1  UNL1       -0.6646
     17 O          -7.4368   11.6789   -5.9098 O.co2   1  UNL1       -0.6646
     18 O          -7.7584    9.5550   -4.6647 O.co2   1  UNL1       -0.6646
     19 C          -7.3493   13.4520   -1.9737 C.3     1  UNL1        0.1329
     20 O          -8.7194   13.6575   -1.5634 O.3     1  UNL1       -0.3845
     21 C          -6.6900   12.2547   -1.2611 C.3     1  UNL1        0.1668
     22 N          -6.2241   12.4784    0.1260 N.ar    1  UNL1       -0.2855
     23 C          -6.8420   11.9156    1.2146 C.ar    1  UNL1        0.1004
     24 N          -6.3016   12.2310    2.3542 N.ar    1  UNL1       -0.2306
     25 C          -5.2089   13.0919    2.0163 C.ar    1  UNL1        0.1473
     26 C          -4.2046   13.7676    2.8328 C.ar    1  UNL1        0.1472
     27 N          -4.2304   13.7423    4.1796 N.pl3   1  UNL1       -0.3413
     28 N          -3.2632   14.5003    2.1815 N.ar    1  UNL1       -0.2188
     29 C          -3.3354   14.5687    0.8441 C.ar    1  UNL1        0.1205
     30 N          -4.2070   14.0101   -0.0304 N.ar    1  UNL1       -0.2159
     31 C          -5.1490   13.2534    0.6364 C.ar    1  UNL1        0.1674
     32 H          -4.2641   13.6550   -3.1582 H       1  UNL1        0.0631
     33 H          -5.2836   13.8953   -4.6060 H       1  UNL1        0.0631
     34 H          -5.8634   11.2909   -3.9011 H       1  UNL1        0.0650
     35 H          -7.3890   13.6497   -4.1322 H       1  UNL1        0.0694
     36 H          -6.7619   14.3678   -1.9091 H       1  UNL1        0.0667
     37 H          -7.4169   11.4434   -1.2983 H       1  UNL1        0.0866
     38 H          -7.7019   11.2673    1.1318 H       1  UNL1        0.1030
     39 H          -2.5668   15.1729    0.3852 H       1  UNL1        0.1048
     40 H          -3.9628   12.9035    4.6743 H       1  UNL1        0.1438
     41 H          -4.5174   14.5624    4.6946 H       1  UNL1        0.1438
     42 H          -8.7791   13.6020   -0.6068 H       1  UNL1        0.2101
@<TRIPOS>BOND
     1     1     2    1
     2     1     3    1
     3     1     4    1
     4     1     8    1
     5     5     6    1
     6     5     7    1
     7     5     8    1
     8     5     9    1
     9     9    10    1
    10    10    11    1
    11    11    12    1
    12    11    13    1
    13    12    21    1
    14    13    14    1
    15    13    19    1
    16    14    15    1
    17    15    16    1
    18    15    17    1
    19    15    18    1
    20    19    20    1
    21    19    21    1
    22    21    22    1
    23    22    23   ar
    24    22    31   ar
    25    23    24   ar
    26    24    25   ar
    27    25    26   ar
    28    25    31   ar
    29    26    27    1
    30    26    28   ar
    31    28    29   ar
    32    29    30   ar
    33    30    31   ar
    34    32    10    1
    35    33    10    1
    36    11    34    1
    37    13    35    1
    38    19    36    1
    39    21    37    1
    40    38    23    1
    41    39    29    1
    42    40    27    1
    43    41    27    1
    44    42    20    1
@<TRIPOS>SUBSTRUCTURE
     1 UNL1        1 TEMP              0 ****  ****    0 ROOT

########## Name:	19	2004.31
@<TRIPOS>MOLECULE
af2_protein.mol219	
 42 44 1 0 0
SMALL
GASTEIGER


@<TRIPOS>ATOM
      1 P          -0.6803    8.9986   -3.0933 P.3     1  UNL1        0.0544
      2 O           0.5542    9.4986   -3.7314 O.co2   1  UNL1       -0.6615
      3 O          -0.8176    9.3433   -1.6375 O.co2   1  UNL1       -0.6615
      4 O          -0.9724    7.5768   -3.3899 O.co2   1  UNL1       -0.6615
      5 P          -3.5563   10.1967   -3.4827 P.3     1  UNL1        0.2491
      6 O          -3.0480   10.5603   -2.1267 O.co2   1  UNL1       -0.6337
      7 O          -4.7724    9.3446   -3.5794 O.co2   1  UNL1       -0.6337
      8 O          -1.9047    9.8403   -3.8020 O.3     1  UNL1       -0.0930
      9 O          -3.8315   11.5945   -4.2706 O.3     1  UNL1       -0.2057
     10 C          -4.5881   12.6284   -3.6721 C.3     1  UNL1        0.1232
     11 C          -5.8164   11.9640   -3.1229 C.3     1  UNL1        0.1214
     12 O          -5.5983   11.8486   -1.7129 O.3     1  UNL1       -0.3453
     13 C          -7.1044   12.8121   -3.3075 C.3     1  UNL1        0.1593
     14 O          -8.2442   11.9249   -3.4966 O.3     1  UNL1       -0.2421
     15 P          -8.3905   10.9788   -4.9109 P.3     1  UNL1       -0.0004
     16 O          -9.8161   11.2120   -5.2509 O.co2   1  UNL1       -0.6646
     17 O          -7.4102   11.6147   -5.8277 O.co2   1  UNL1       -0.6646
     18 O          -8.0062    9.5872   -4.5244 O.co2   1  UNL1       -0.6646
     19 C          -7.1757   13.5281   -1.9642 C.3     1  UNL1        0.1329
     20 O          -8.5165   13.9975   -1.7000 O.3     1  UNL1       -0.3845
     21 C          -6.7931   12.3097   -1.1010 C.3     1  UNL1        0.1668
     22 N          -6.4044   12.5815    0.3012 N.ar    1  UNL1       -0.2855
     23 C          -7.1287   12.1223    1.3728 C.ar    1  UNL1        0.1004
     24 N          -6.6434   12.4667    2.5288 N.ar    1  UNL1       -0.2306
     25 C          -5.4752   13.2351    2.2221 C.ar    1  UNL1        0.1473
     26 C          -4.4827   13.8903    3.0691 C.ar    1  UNL1        0.1472
     27 N          -4.5977   13.9434    4.4104 N.pl3   1  UNL1       -0.3413
     28 N          -3.4534   14.5228    2.4465 N.ar    1  UNL1       -0.2188
     29 C          -3.4335   14.5196    1.1055 C.ar    1  UNL1        0.1205
     30 N          -4.2822   13.9692    0.2038 N.ar    1  UNL1       -0.2159
     31 C          -5.3148   13.3137    0.8430 C.ar    1  UNL1        0.1674
     32 H          -4.0200   13.0998   -2.8702 H       1  UNL1        0.0631
     33 H          -4.8662   13.3703   -4.4206 H       1  UNL1        0.0631
     34 H          -5.9452   10.9775   -3.5684 H       1  UNL1        0.0650
     35 H          -7.0555   13.5728   -4.0865 H       1  UNL1        0.0694
     36 H          -6.4403   14.3291   -1.8889 H       1  UNL1        0.0667
     37 H          -7.5695   11.5459   -1.1454 H       1  UNL1        0.0866
     38 H          -8.0234   11.5269    1.2652 H       1  UNL1        0.1030
     39 H          -2.5974   15.0461    0.6695 H       1  UNL1        0.1048
     40 H          -4.4205   13.1186    4.9656 H       1  UNL1        0.1438
     41 H          -4.8614   14.8081    4.8607 H       1  UNL1        0.1438
     42 H          -8.6679   14.0177   -0.7523 H       1  UNL1        0.2101
@<TRIPOS>BOND
     1     1     2    1
     2     1     3    1
     3     1     4    1
     4     1     8    1
     5     5     6    1
     6     5     7    1
     7     5     8    1
     8     5     9    1
     9     9    10    1
    10    10    11    1
    11    11    12    1
    12    11    13    1
    13    12    21    1
    14    13    14    1
    15    13    19    1
    16    14    15    1
    17    15    16    1
    18    15    17    1
    19    15    18    1
    20    19    20    1
    21    19    21    1
    22    21    22    1
    23    22    23   ar
    24    22    31   ar
    25    23    24   ar
    26    24    25   ar
    27    25    26   ar
    28    25    31   ar
    29    26    27    1
    30    26    28   ar
    31    28    29   ar
    32    29    30   ar
    33    30    31   ar
    34    32    10    1
    35    33    10    1
    36    11    34    1
    37    13    35    1
    38    19    36    1
    39    21    37    1
    40    38    23    1
    41    39    29    1
    42    40    27    1
    43    41    27    1
    44    42    20    1
@<TRIPOS>SUBSTRUCTURE
     1 UNL1        1 TEMP              0 ****  ****    0 ROOT

########## Name:	0	2109.95
@<TRIPOS>MOLECULE
af2_protein.mol20	
 42 44 1 0 0
SMALL
GASTEIGER


@<TRIPOS>ATOM
      1 P          -1.4793    8.0090   -4.3588 P.3     1  UNL1        0.0544
      2 O          -0.5623    8.0230   -5.5163 O.co2   1  UNL1       -0.6615
      3 O          -0.8623    8.4574   -3.0645 O.co2   1  UNL1       -0.6615
      4 O          -2.2635    6.7584   -4.2330 O.co2   1  UNL1       -0.6615
      5 P          -3.7384   10.1172   -3.8012 P.3     1  UNL1        0.2491
      6 O          -2.9983   10.5203   -2.5687 O.co2   1  UNL1       -0.6337
      7 O          -5.0606    9.4516   -3.6488 O.co2   1  UNL1       -0.6337
      8 O          -2.5935    9.1786   -4.6759 O.3     1  UNL1       -0.0930
      9 O          -3.9295   11.4643   -4.6951 O.3     1  UNL1       -0.2057
     10 C          -4.4456   12.6491   -4.1213 C.3     1  UNL1        0.1232
     11 C          -5.7751   12.2696   -3.5382 C.3     1  UNL1        0.1214
     12 O          -5.5614   12.1519   -2.1277 O.3     1  UNL1       -0.3453
     13 C          -6.8629   13.3606   -3.7354 C.3     1  UNL1        0.1593
     14 O          -8.1646   12.7238   -3.8841 O.3     1  UNL1       -0.2421
     15 P          -8.4849   11.6866   -5.2026 P.3     1  UNL1       -0.0004
     16 O          -9.7879   12.2256   -5.6655 O.co2   1  UNL1       -0.6646
     17 O          -7.3359   11.9488   -6.1063 O.co2   1  UNL1       -0.6646
     18 O          -8.4851   10.2975   -4.6512 O.co2   1  UNL1       -0.6646
     19 C          -6.7616   14.1139   -2.4146 C.3     1  UNL1        0.1329
     20 O          -7.9716   14.8582   -2.1508 O.3     1  UNL1       -0.3845
     21 C          -6.6244   12.8678   -1.5177 C.3     1  UNL1        0.1668
     22 N          -6.1640   13.0931   -0.1290 N.ar    1  UNL1       -0.2855
     23 C          -6.9491   12.8247    0.9643 C.ar    1  UNL1        0.1004
     24 N          -6.3834   13.0940    2.1035 N.ar    1  UNL1       -0.2306
     25 C          -5.0869   13.5945    1.7601 C.ar    1  UNL1        0.1473
     26 C          -3.9660   14.0538    2.5753 C.ar    1  UNL1        0.1472
     27 N          -4.0446   14.1678    3.9154 N.pl3   1  UNL1       -0.3413
     28 N          -2.8390   14.4413    1.9220 N.ar    1  UNL1       -0.2188
     29 C          -2.8432   14.3957    0.5816 C.ar    1  UNL1        0.1205
     30 N          -3.8026   14.0076   -0.2931 N.ar    1  UNL1       -0.2159
     31 C          -4.9374   13.5988    0.3776 C.ar    1  UNL1        0.1674
     32 H          -3.7786   13.0153   -3.3408 H       1  UNL1        0.0631
     33 H          -4.5771   13.4109   -4.8897 H       1  UNL1        0.0631
     34 H          -6.1127   11.3189   -3.9510 H       1  UNL1        0.0650
     35 H          -6.6337   14.0061   -4.5831 H       1  UNL1        0.0694
     36 H          -5.8753   14.7469   -2.3726 H       1  UNL1        0.0667
     37 H          -7.5426   12.2805   -1.5296 H       1  UNL1        0.0866
     38 H          -7.9493   12.4248    0.8852 H       1  UNL1        0.1030
     39 H          -1.9239   14.7249    0.1202 H       1  UNL1        0.1048
     40 H          -4.0323   13.3404    4.4944 H       1  UNL1        0.1438
     41 H          -4.1160   15.0809    4.3411 H       1  UNL1        0.1438
     42 H          -8.0993   14.9364   -1.2026 H       1  UNL1        0.2101
@<TRIPOS>BOND
     1     1     2    1
     2     1     3    1
     3     1     4    1
     4     1     8    1
     5     5     6    1
     6     5     7    1
     7     5     8    1
     8     5     9    1
     9     9    10    1
    10    10    11    1
    11    11    12    1
    12    11    13    1
    13    12    21    1
    14    13    14    1
    15    13    19    1
    16    14    15    1
    17    15    16    1
    18    15    17    1
    19    15    18    1
    20    19    20    1
    21    19    21    1
    22    21    22    1
    23    22    23   ar
    24    22    31   ar
    25    23    24   ar
    26    24    25   ar
    27    25    26   ar
    28    25    31   ar
    29    26    27    1
    30    26    28   ar
    31    28    29   ar
    32    29    30   ar
    33    30    31   ar
    34    32    10    1
    35    33    10    1
    36    11    34    1
    37    13    35    1
    38    19    36    1
    39    21    37    1
    40    38    23    1
    41    39    29    1
    42    40    27    1
    43    41    27    1
    44    42    20    1
@<TRIPOS>SUBSTRUCTURE
     1 UNL1        1 TEMP              0 ****  ****    0 ROOT

########## Name:	1	2315.98
@<TRIPOS>MOLECULE
af2_protein.mol21	
 42 44 1 0 0
SMALL
GASTEIGER


@<TRIPOS>ATOM
      1 P          -3.5743    7.0009   -4.1601 P.3     1  UNL1        0.0544
      2 O          -3.3968    6.5701   -5.5615 O.co2   1  UNL1       -0.6615
      3 O          -2.3454    7.5849   -3.5230 O.co2   1  UNL1       -0.6615
      4 O          -4.2568    5.9987   -3.3089 O.co2   1  UNL1       -0.6615
      5 P          -5.0692    9.6011   -3.2309 P.3     1  UNL1        0.2491
      6 O          -3.7707   10.1027   -2.6910 O.co2   1  UNL1       -0.6337
      7 O          -6.1577    9.2739   -2.2706 O.co2   1  UNL1       -0.6337
      8 O          -4.6119    8.2771   -4.2283 O.3     1  UNL1       -0.0930
      9 O          -5.6107   10.7287   -4.2730 O.3     1  UNL1       -0.2057
     10 C          -5.6739   12.0911   -3.8999 C.3     1  UNL1        0.1232
     11 C          -6.5256   12.1327   -2.6652 C.3     1  UNL1        0.1214
     12 O          -5.6159   12.2860   -1.5706 O.3     1  UNL1       -0.3453
     13 C          -7.4833   13.3547   -2.6242 C.3     1  UNL1        0.1593
     14 O          -8.7096   12.9846   -1.9304 O.3     1  UNL1       -0.2421
     15 P          -9.7368   11.7727   -2.5571 P.3     1  UNL1       -0.0004
     16 O         -11.0519   12.4547   -2.4685 O.co2   1  UNL1       -0.6646
     17 O          -9.2135   11.5862   -3.9344 O.co2   1  UNL1       -0.6646
     18 O          -9.5393   10.5694   -1.6928 O.co2   1  UNL1       -0.6646
     19 C          -6.6596   14.3420   -1.8061 C.3     1  UNL1        0.1329
     20 O          -7.5034   15.3602   -1.2238 O.3     1  UNL1       -0.3845
     21 C          -6.1559   13.3226   -0.7654 C.3     1  UNL1        0.1668
     22 N          -5.0254   13.7469    0.0908 N.ar    1  UNL1       -0.2855
     23 C          -5.1407   13.8938    1.4506 C.ar    1  UNL1        0.1004
     24 N          -4.0479   14.2835    2.0373 N.ar    1  UNL1       -0.2306
     25 C          -3.0915   14.4168    0.9805 C.ar    1  UNL1        0.1473
     26 C          -1.6830   14.8015    0.9760 C.ar    1  UNL1        0.1472
     27 N          -1.0437   15.2208    2.0853 N.pl3   1  UNL1       -0.3413
     28 N          -1.0397   14.7940   -0.2212 N.ar    1  UNL1       -0.2188
     29 C          -1.7452   14.4570   -1.3109 C.ar    1  UNL1        0.1205
     30 N          -3.0427   14.0937   -1.4545 N.ar    1  UNL1       -0.2159
     31 C          -3.6849   14.0862   -0.2329 C.ar    1  UNL1        0.1674
     32 H          -4.6757   12.4735   -3.6865 H       1  UNL1        0.0631
     33 H          -6.1371   12.6758   -4.6946 H       1  UNL1        0.0631
     34 H          -7.0896   11.2057   -2.5622 H       1  UNL1        0.0650
     35 H          -7.6886   13.7366   -3.6242 H       1  UNL1        0.0694
     36 H          -5.8426   14.7711   -2.3861 H       1  UNL1        0.0667
     37 H          -6.9813   12.9502   -0.1587 H       1  UNL1        0.0866
     38 H          -6.0588   13.7023    1.9862 H       1  UNL1        0.1030
     39 H          -1.1823   14.4792   -2.2324 H       1  UNL1        0.1048
     40 H          -0.7849   14.5565    2.8007 H       1  UNL1        0.1438
     41 H          -0.8234   16.1995    2.2016 H       1  UNL1        0.1438
     42 H          -7.1125   15.6694   -0.4033 H       1  UNL1        0.2101
@<TRIPOS>BOND
     1     1     2    1
     2     1     3    1
     3     1     4    1
     4     1     8    1
     5     5     6    1
     6     5     7    1
     7     5     8    1
     8     5     9    1
     9     9    10    1
    10    10    11    1
    11    11    12    1
    12    11    13    1
    13    12    21    1
    14    13    14    1
    15    13    19    1
    16    14    15    1
    17    15    16    1
    18    15    17    1
    19    15    18    1
    20    19    20    1
    21    19    21    1
    22    21    22    1
    23    22    23   ar
    24    22    31   ar
    25    23    24   ar
    26    24    25   ar
    27    25    26   ar
    28    25    31   ar
    29    26    27    1
    30    26    28   ar
    31    28    29   ar
    32    29    30   ar
    33    30    31   ar
    34    32    10    1
    35    33    10    1
    36    11    34    1
    37    13    35    1
    38    19    36    1
    39    21    37    1
    40    38    23    1
    41    39    29    1
    42    40    27    1
    43    41    27    1
    44    42    20    1
@<TRIPOS>SUBSTRUCTURE
     1 UNL1        1 TEMP              0 ****  ****    0 ROOT

########## Name:	2	2228.78
@<TRIPOS>MOLECULE
af2_protein.mol22	
 42 44 1 0 0
SMALL
GASTEIGER


@<TRIPOS>ATOM
      1 P          -4.1890   13.2115    4.3608 P.3     1  UNL1        0.0544
      2 O          -4.7717   12.6113    5.5778 O.co2   1  UNL1       -0.6615
      3 O          -3.0431   12.4413    3.7687 O.co2   1  UNL1       -0.6615
      4 O          -3.9208   14.6636    4.4805 O.co2   1  UNL1       -0.6615
      5 P          -5.4785   13.1381    1.4988 P.3     1  UNL1        0.2491
      6 O          -4.3153   12.3207    1.0429 O.co2   1  UNL1       -0.6337
      7 O          -5.6373   14.5129    0.9521 O.co2   1  UNL1       -0.6337
      8 O          -5.3637   13.0899    3.2139 O.3     1  UNL1       -0.0930
      9 O          -6.8184   12.2794    1.1556 O.3     1  UNL1       -0.2057
     10 C          -7.0187   11.7305   -0.1320 C.3     1  UNL1        0.1232
     11 C          -6.9367   12.8890   -1.0822 C.3     1  UNL1        0.1214
     12 O          -5.6403   12.8073   -1.6837 O.3     1  UNL1       -0.3453
     13 C          -7.9710   12.8060   -2.2379 C.3     1  UNL1        0.1593
     14 O          -8.3808   14.1515   -2.6173 O.3     1  UNL1       -0.2421
     15 P          -9.1956   15.1626   -1.5080 P.3     1  UNL1       -0.0004
     16 O         -10.3225   15.6393   -2.3478 O.co2   1  UNL1       -0.6646
     17 O          -9.5704   14.2180   -0.4250 O.co2   1  UNL1       -0.6646
     18 O          -8.2004   16.1867   -1.0669 O.co2   1  UNL1       -0.6646
     19 C          -7.1338   12.1523   -3.3306 C.3     1  UNL1        0.1329
     20 O          -7.7035   12.4003   -4.6351 O.3     1  UNL1       -0.3845
     21 C          -5.8530   12.9718   -3.0773 C.3     1  UNL1        0.1668
     22 N          -4.6067   12.4704   -3.6991 N.ar    1  UNL1       -0.2855
     23 C          -3.9237   13.1733   -4.6599 C.ar    1  UNL1        0.1004
     24 N          -2.8569   12.5737   -5.0989 N.ar    1  UNL1       -0.2306
     25 C          -2.8020   11.3426   -4.3706 C.ar    1  UNL1        0.1473
     26 C          -1.8480   10.2372   -4.3844 C.ar    1  UNL1        0.1472
     27 N          -0.8200   10.1793   -5.2532 N.pl3   1  UNL1       -0.3413
     28 N          -2.0742    9.2092   -3.5246 N.ar    1  UNL1       -0.2188
     29 C          -3.1631    9.2715   -2.7442 C.ar    1  UNL1        0.1205
     30 N          -4.1275   10.2172   -2.6350 N.ar    1  UNL1       -0.2159
     31 C          -3.8818   11.2659   -3.4978 C.ar    1  UNL1        0.1674
     32 H          -6.2437   10.9980   -0.3578 H       1  UNL1        0.0631
     33 H          -8.0026   11.2655   -0.1920 H       1  UNL1        0.0631
     34 H          -7.0457   13.8300   -0.5430 H       1  UNL1        0.0650
     35 H          -8.8269   12.1885   -1.9658 H       1  UNL1        0.0694
     36 H          -6.9813   11.0889   -3.1470 H       1  UNL1        0.0667
     37 H          -6.0116   14.0219   -3.3226 H       1  UNL1        0.0866
     38 H          -4.2444   14.1398   -5.0197 H       1  UNL1        0.1030
     39 H          -3.2938    8.4218   -2.0905 H       1  UNL1        0.1048
     40 H          -0.0156   10.7762   -5.1246 H       1  UNL1        0.1438
     41 H          -0.8539    9.5389   -6.0335 H       1  UNL1        0.1438
     42 H          -7.0047   12.4093   -5.2934 H       1  UNL1        0.2101
@<TRIPOS>BOND
     1     1     2    1
     2     1     3    1
     3     1     4    1
     4     1     8    1
     5     5     6    1
     6     5     7    1
     7     5     8    1
     8     5     9    1
     9     9    10    1
    10    10    11    1
    11    11    12    1
    12    11    13    1
    13    12    21    1
    14    13    14    1
    15    13    19    1
    16    14    15    1
    17    15    16    1
    18    15    17    1
    19    15    18    1
    20    19    20    1
    21    19    21    1
    22    21    22    1
    23    22    23   ar
    24    22    31   ar
    25    23    24   ar
    26    24    25   ar
    27    25    26   ar
    28    25    31   ar
    29    26    27    1
    30    26    28   ar
    31    28    29   ar
    32    29    30   ar
    33    30    31   ar
    34    32    10    1
    35    33    10    1
    36    11    34    1
    37    13    35    1
    38    19    36    1
    39    21    37    1
    40    38    23    1
    41    39    29    1
    42    40    27    1
    43    41    27    1
    44    42    20    1
@<TRIPOS>SUBSTRUCTURE
     1 UNL1        1 TEMP              0 ****  ****    0 ROOT

########## Name:	3	2197.45
@<TRIPOS>MOLECULE
af2_protein.mol23	
 42 44 1 0 0
SMALL
GASTEIGER


@<TRIPOS>ATOM
      1 P          -9.8512   13.4819    2.2152 P.3     1  UNL1        0.0544
      2 O         -10.2527   14.6733    2.9900 O.co2   1  UNL1       -0.6615
      3 O         -10.4492   13.3976    0.8397 O.co2   1  UNL1       -0.6615
      4 O          -9.9476   12.2143    2.9760 O.co2   1  UNL1       -0.6615
      5 P          -7.0641   13.0659    0.8304 P.3     1  UNL1        0.2491
      6 O          -7.7674   13.0623   -0.4866 O.co2   1  UNL1       -0.6337
      7 O          -6.4223   11.8064    1.2953 O.co2   1  UNL1       -0.6337
      8 O          -8.2436   13.6792    1.9211 O.3     1  UNL1       -0.0930
      9 O          -5.9325   14.2339    0.7545 O.3     1  UNL1       -0.2057
     10 C          -5.0340   14.3044   -0.3350 C.3     1  UNL1        0.1232
     11 C          -4.3482   12.9705   -0.3800 C.3     1  UNL1        0.1214
     12 O          -4.9679   12.2509   -1.4511 O.3     1  UNL1       -0.3453
     13 C          -2.8373   13.0713   -0.7253 C.3     1  UNL1        0.1593
     14 O          -2.1136   12.0068   -0.0433 O.3     1  UNL1       -0.2421
     15 P          -2.0653   11.9362    1.6624 P.3     1  UNL1       -0.0004
     16 O          -0.6126   11.7325    1.8877 O.co2   1  UNL1       -0.6646
     17 O          -2.5844   13.2709    2.0558 O.co2   1  UNL1       -0.6646
     18 O          -2.9746   10.8188    2.0604 O.co2   1  UNL1       -0.6646
     19 C          -2.8678   12.8444   -2.2319 C.3     1  UNL1        0.1329
     20 O          -1.5755   12.4155   -2.7155 O.3     1  UNL1       -0.3845
     21 C          -3.9023   11.7018   -2.2112 C.3     1  UNL1        0.1668
     22 N          -4.5241   11.3418   -3.5054 N.ar    1  UNL1       -0.2855
     23 C          -4.3483   10.1152   -4.0957 C.ar    1  UNL1        0.1004
     24 N          -4.9611    9.9810   -5.2345 N.ar    1  UNL1       -0.2306
     25 C          -5.6203   11.2339   -5.4463 C.ar    1  UNL1        0.1473
     26 C          -6.4802   11.7196   -6.5217 C.ar    1  UNL1        0.1472
     27 N          -6.7226   11.0008   -7.6351 N.pl3   1  UNL1       -0.3413
     28 N          -6.9821   12.9765   -6.3977 N.ar    1  UNL1       -0.2188
     29 C          -6.6367   13.6863   -5.3135 C.ar    1  UNL1        0.1205
     30 N          -5.8494   13.3712   -4.2565 N.ar    1  UNL1       -0.2159
     31 C          -5.3578   12.0876   -4.3804 C.ar    1  UNL1        0.1674
     32 H          -5.5758   14.4849   -1.2635 H       1  UNL1        0.0631
     33 H          -4.3036   15.0959   -0.1675 H       1  UNL1        0.0631
     34 H          -4.4870   12.4408    0.5625 H       1  UNL1        0.0650
     35 H          -2.4342   14.0529   -0.4763 H       1  UNL1        0.0694
     36 H          -3.2354   13.7186   -2.7691 H       1  UNL1        0.0667
     37 H          -3.4927   10.8188   -1.7206 H       1  UNL1        0.0866
     38 H          -3.7531    9.3303   -3.6529 H       1  UNL1        0.1030
     39 H          -7.0584   14.6799   -5.2766 H       1  UNL1        0.1048
     40 H          -7.3427   10.2045   -7.5973 H       1  UNL1        0.1438
     41 H          -6.2840   11.2582   -8.5078 H       1  UNL1        0.1438
     42 H          -1.6913   11.8625   -3.4916 H       1  UNL1        0.2101
@<TRIPOS>BOND
     1     1     2    1
     2     1     3    1
     3     1     4    1
     4     1     8    1
     5     5     6    1
     6     5     7    1
     7     5     8    1
     8     5     9    1
     9     9    10    1
    10    10    11    1
    11    11    12    1
    12    11    13    1
    13    12    21    1
    14    13    14    1
    15    13    19    1
    16    14    15    1
    17    15    16    1
    18    15    17    1
    19    15    18    1
    20    19    20    1
    21    19    21    1
    22    21    22    1
    23    22    23   ar
    24    22    31   ar
    25    23    24   ar
    26    24    25   ar
    27    25    26   ar
    28    25    31   ar
    29    26    27    1
    30    26    28   ar
    31    28    29   ar
    32    29    30   ar
    33    30    31   ar
    34    32    10    1
    35    33    10    1
    36    11    34    1
    37    13    35    1
    38    19    36    1
    39    21    37    1
    40    38    23    1
    41    39    29    1
    42    40    27    1
    43    41    27    1
    44    42    20    1
@<TRIPOS>SUBSTRUCTURE
     1 UNL1        1 TEMP              0 ****  ****    0 ROOT

########## Name:	4	2044.69
@<TRIPOS>MOLECULE
af2_protein.mol24	
 42 44 1 0 0
SMALL
GASTEIGER


@<TRIPOS>ATOM
      1 P          -4.6006   13.4044    4.0961 P.3     1  UNL1        0.0544
      2 O          -5.3427   12.9186    5.2769 O.co2   1  UNL1       -0.6615
      3 O          -3.4439   12.5395    3.6829 O.co2   1  UNL1       -0.6615
      4 O          -4.2645   14.8461    4.1534 O.co2   1  UNL1       -0.6615
      5 P          -5.5804   13.1998    1.1200 P.3     1  UNL1        0.2491
      6 O          -4.4237   12.2963    0.8467 O.co2   1  UNL1       -0.6337
      7 O          -5.6016   14.5403    0.4742 O.co2   1  UNL1       -0.6337
      8 O          -5.6516   13.2633    2.8369 O.3     1  UNL1       -0.0930
      9 O          -6.9228   12.3874    0.6860 O.3     1  UNL1       -0.2057
     10 C          -7.0159   11.7624   -0.5789 C.3     1  UNL1        0.1232
     11 C          -6.7675   12.8478   -1.5850 C.3     1  UNL1        0.1214
     12 O          -5.4213   12.6607   -2.0340 O.3     1  UNL1       -0.3453
     13 C          -7.6760   12.7376   -2.8398 C.3     1  UNL1        0.1593
     14 O          -7.9659   14.0727   -3.3454 O.3     1  UNL1       -0.2421
     15 P          -8.8352   15.1966   -2.3979 P.3     1  UNL1       -0.0004
     16 O          -9.8375   15.6702   -3.3846 O.co2   1  UNL1       -0.6646
     17 O          -9.3763   14.3481   -1.3056 O.co2   1  UNL1       -0.6646
     18 O          -7.8360   16.1976   -1.9150 O.co2   1  UNL1       -0.6646
     19 C          -6.7659   11.9698   -3.7909 C.3     1  UNL1        0.1329
     20 O          -7.1785   12.1561   -5.1630 O.3     1  UNL1       -0.3845
     21 C          -5.4748   12.7399   -3.4501 C.3     1  UNL1        0.1668
     22 N          -4.2000   12.1358   -3.8985 N.ar    1  UNL1       -0.2855
     23 C          -3.3798   12.7364   -4.8206 C.ar    1  UNL1        0.1004
     24 N          -2.3082   12.0559   -5.1013 N.ar    1  UNL1       -0.2306
     25 C          -2.4011   10.8762   -4.2958 C.ar    1  UNL1        0.1473
     26 C          -1.5156    9.7264   -4.1355 C.ar    1  UNL1        0.1472
     27 N          -0.4060    9.5581   -4.8807 N.pl3   1  UNL1       -0.3413
     28 N          -1.8901    8.7721   -3.2431 N.ar    1  UNL1       -0.2188
     29 C          -3.0505    8.9417   -2.5925 C.ar    1  UNL1        0.1205
     30 N          -3.9657    9.9395   -2.6493 N.ar    1  UNL1       -0.2159
     31 C          -3.5704   10.9132   -3.5438 C.ar    1  UNL1        0.1674
     32 H          -6.2642   10.9785   -0.6719 H       1  UNL1        0.0631
     33 H          -8.0128   11.3440   -0.7174 H       1  UNL1        0.0631
     34 H          -6.8796   13.8277   -1.1210 H       1  UNL1        0.0650
     35 H          -8.5898   12.1835   -2.6254 H       1  UNL1        0.0694
     36 H          -6.6946   10.9151   -3.5254 H       1  UNL1        0.0667
     37 H          -5.5464   13.7774   -3.7766 H       1  UNL1        0.0866
     38 H          -3.6048   13.6909   -5.2732 H       1  UNL1        0.1030
     39 H          -3.2982    8.1462   -1.9053 H       1  UNL1        0.1048
     40 H           0.4129   10.1216   -4.7020 H       1  UNL1        0.1438
     41 H          -0.3930    8.8683   -5.6184 H       1  UNL1        0.1438
     42 H          -6.4143   12.0852   -5.7398 H       1  UNL1        0.2101
@<TRIPOS>BOND
     1     1     2    1
     2     1     3    1
     3     1     4    1
     4     1     8    1
     5     5     6    1
     6     5     7    1
     7     5     8    1
     8     5     9    1
     9     9    10    1
    10    10    11    1
    11    11    12    1
    12    11    13    1
    13    12    21    1
    14    13    14    1
    15    13    19    1
    16    14    15    1
    17    15    16    1
    18    15    17    1
    19    15    18    1
    20    19    20    1
    21    19    21    1
    22    21    22    1
    23    22    23   ar
    24    22    31   ar
    25    23    24   ar
    26    24    25   ar
    27    25    26   ar
    28    25    31   ar
    29    26    27    1
    30    26    28   ar
    31    28    29   ar
    32    29    30   ar
    33    30    31   ar
    34    32    10    1
    35    33    10    1
    36    11    34    1
    37    13    35    1
    38    19    36    1
    39    21    37    1
    40    38    23    1
    41    39    29    1
    42    40    27    1
    43    41    27    1
    44    42    20    1
@<TRIPOS>SUBSTRUCTURE
     1 UNL1        1 TEMP              0 ****  ****    0 ROOT

########## Name:	5	2144.18
@<TRIPOS>MOLECULE
af2_protein.mol25	
 42 44 1 0 0
SMALL
GASTEIGER


@<TRIPOS>ATOM
      1 P          -0.0561    9.4690   -4.1616 P.3     1  UNL1        0.0544
      2 O           0.8900    9.8145   -5.2416 O.co2   1  UNL1       -0.6615
      3 O           0.2891   10.0447   -2.8175 O.co2   1  UNL1       -0.6615
      4 O          -0.4060    8.0303   -4.1115 O.co2   1  UNL1       -0.6615
      5 P          -2.9050   10.7283   -3.7659 P.3     1  UNL1        0.2491
      6 O          -2.4245   11.3023   -2.4741 O.co2   1  UNL1       -0.6337
      7 O          -3.9523    9.6718   -3.7267 O.co2   1  UNL1       -0.6337
      8 O          -1.4596   10.2338   -4.5553 O.3     1  UNL1       -0.0930
      9 O          -3.4513   11.9751   -4.6588 O.3     1  UNL1       -0.2057
     10 C          -4.3595   12.9134   -4.1164 C.3     1  UNL1        0.1232
     11 C          -5.5366   12.1105   -3.6456 C.3     1  UNL1        0.1214
     12 O          -5.3997   12.0175   -2.2237 O.3     1  UNL1       -0.3453
     13 C          -6.8987   12.8051   -3.9185 C.3     1  UNL1        0.1593
     14 O          -7.9139   11.7930   -4.1774 O.3     1  UNL1       -0.2421
     15 P          -7.7889   10.7547   -5.5276 P.3     1  UNL1       -0.0004
     16 O          -9.1584   10.8672   -6.0881 O.co2   1  UNL1       -0.6646
     17 O          -6.7215   11.4002   -6.3337 O.co2   1  UNL1       -0.6646
     18 O          -7.3848    9.4192   -4.9920 O.co2   1  UNL1       -0.6646
     19 C          -7.1401   13.5047   -2.5864 C.3     1  UNL1        0.1329
     20 O          -8.5404   13.8158   -2.4131 O.3     1  UNL1       -0.3845
     21 C          -6.6773   12.3362   -1.6938 C.3     1  UNL1        0.1668
     22 N          -6.4155   12.6474   -0.2705 N.ar    1  UNL1       -0.2855
     23 C          -7.1509   12.1051    0.7536 C.ar    1  UNL1        0.1004
     24 N          -6.7855   12.5002    1.9371 N.ar    1  UNL1       -0.2306
     25 C          -5.6959   13.3988    1.7038 C.ar    1  UNL1        0.1473
     26 C          -4.8433   14.1619    2.6108 C.ar    1  UNL1        0.1472
     27 N          -5.0515   14.1979    3.9413 N.pl3   1  UNL1       -0.3413
     28 N          -3.8549   14.9103    2.0538 N.ar    1  UNL1       -0.2188
     29 C          -3.7467   14.9128    0.7171 C.ar    1  UNL1        0.1205
     30 N          -4.4653   14.2707   -0.2356 N.ar    1  UNL1       -0.2159
     31 C          -5.4553   13.4989    0.3378 C.ar    1  UNL1        0.1674
     32 H          -3.9034   13.4451   -3.2813 H       1  UNL1        0.0631
     33 H          -4.6714   13.6202   -4.8852 H       1  UNL1        0.0631
     34 H          -5.5214   11.1169   -4.0936 H       1  UNL1        0.0650
     35 H          -6.8269   13.5193   -4.7387 H       1  UNL1        0.0694
     36 H          -6.5083   14.3848   -2.4671 H       1  UNL1        0.0667
     37 H          -7.3560   11.4882   -1.7852 H       1  UNL1        0.0866
     38 H          -7.9621   11.4109    0.5905 H       1  UNL1        0.1030
     39 H          -2.9501   15.5333    0.3341 H       1  UNL1        0.1048
     40 H          -4.8174   13.3976    4.5112 H       1  UNL1        0.1438
     41 H          -5.4420   15.0253    4.3690 H       1  UNL1        0.1438
     42 H          -8.7551   13.8160   -1.4774 H       1  UNL1        0.2101
@<TRIPOS>BOND
     1     1     2    1
     2     1     3    1
     3     1     4    1
     4     1     8    1
     5     5     6    1
     6     5     7    1
     7     5     8    1
     8     5     9    1
     9     9    10    1
    10    10    11    1
    11    11    12    1
    12    11    13    1
    13    12    21    1
    14    13    14    1
    15    13    19    1
    16    14    15    1
    17    15    16    1
    18    15    17    1
    19    15    18    1
    20    19    20    1
    21    19    21    1
    22    21    22    1
    23    22    23   ar
    24    22    31   ar
    25    23    24   ar
    26    24    25   ar
    27    25    26   ar
    28    25    31   ar
    29    26    27    1
    30    26    28   ar
    31    28    29   ar
    32    29    30   ar
    33    30    31   ar
    34    32    10    1
    35    33    10    1
    36    11    34    1
    37    13    35    1
    38    19    36    1
    39    21    37    1
    40    38    23    1
    41    39    29    1
    42    40    27    1
    43    41    27    1
    44    42    20    1
@<TRIPOS>SUBSTRUCTURE
     1 UNL1        1 TEMP              0 ****  ****    0 ROOT

########## Name:	6	2201.67
@<TRIPOS>MOLECULE
af2_protein.mol26	
 42 44 1 0 0
SMALL
GASTEIGER


@<TRIPOS>ATOM
      1 P          -1.4458    9.6181   -5.7550 P.3     1  UNL1        0.0544
      2 O          -0.9435   10.0184   -7.0848 O.co2   1  UNL1       -0.6615
      3 O          -0.6070   10.0875   -4.6004 O.co2   1  UNL1       -0.6615
      4 O          -1.8218    8.1879   -5.6641 O.co2   1  UNL1       -0.6615
      5 P          -3.8904   10.9110   -4.2680 P.3     1  UNL1        0.2491
      6 O          -2.9449   11.3795   -3.2117 O.co2   1  UNL1       -0.6337
      7 O          -4.9004    9.8790   -3.9088 O.co2   1  UNL1       -0.6337
      8 O          -2.8580   10.4414   -5.5604 O.3     1  UNL1       -0.0930
      9 O          -4.6644   12.2312   -4.8234 O.3     1  UNL1       -0.2057
     10 C          -5.2662   13.1487   -3.9317 C.3     1  UNL1        0.1232
     11 C          -6.2274   12.3415   -3.1093 C.3     1  UNL1        0.1214
     12 O          -5.5859   12.1433   -1.8450 O.3     1  UNL1       -0.3453
     13 C          -7.5603   13.0851   -2.8219 C.3     1  UNL1        0.1593
     14 O          -8.6472   12.1179   -2.7487 O.3     1  UNL1       -0.2421
     15 P          -9.0731   11.1768   -4.1087 P.3     1  UNL1       -0.0004
     16 O         -10.5456   11.3609   -4.1196 O.co2   1  UNL1       -0.6646
     17 O          -8.3437   11.8538   -5.2111 O.co2   1  UNL1       -0.6646
     18 O          -8.5659    9.7973   -3.8378 O.co2   1  UNL1       -0.6646
     19 C          -7.2654   13.6925   -1.4558 C.3     1  UNL1        0.1329
     20 O          -8.4894   14.0226   -0.7626 O.3     1  UNL1       -0.3845
     21 C          -6.5653   12.4525   -0.8654 C.3     1  UNL1        0.1668
     22 N          -5.7878   12.6545    0.3779 N.ar    1  UNL1       -0.2855
     23 C          -6.1240   12.0571    1.5669 C.ar    1  UNL1        0.1004
     24 N          -5.3337   12.3574    2.5545 N.ar    1  UNL1       -0.2306
     25 C          -4.3626   13.2451    1.9904 C.ar    1  UNL1        0.1473
     26 C          -3.2024   13.9211    2.5639 C.ar    1  UNL1        0.1472
     27 N          -2.9090   13.8662    3.8776 N.pl3   1  UNL1       -0.3413
     28 N          -2.4507   14.6846    1.7277 N.ar    1  UNL1       -0.2188
     29 C          -2.8376   14.7807    0.4472 C.ar    1  UNL1        0.1205
     30 N          -3.8841   14.2255   -0.2109 N.ar    1  UNL1       -0.2159
     31 C          -4.6324   13.4376    0.6398 C.ar    1  UNL1        0.1674
     32 H          -4.5120   13.6083   -3.2928 H       1  UNL1        0.0631
     33 H          -5.8029   13.9160   -4.4895 H       1  UNL1        0.0631
     34 H          -6.4242   11.3826   -3.5888 H       1  UNL1        0.0650
     35 H          -7.7586   13.8546   -3.5679 H       1  UNL1        0.0694
     36 H          -6.5923   14.5470   -1.5256 H       1  UNL1        0.0667
     37 H          -7.2703   11.6291   -0.7506 H       1  UNL1        0.0866
     38 H          -6.9710   11.3953    1.6728 H       1  UNL1        0.1030
     39 H          -2.2068   15.4086   -0.1645 H       1  UNL1        0.1048
     40 H          -2.5217   13.0217    4.2739 H       1  UNL1        0.1438
     41 H          -3.0765   14.6695    4.4664 H       1  UNL1        0.1438
     42 H          -8.3477   13.9604    0.1849 H       1  UNL1        0.2101
@<TRIPOS>BOND
     1     1     2    1
     2     1     3    1
     3     1     4    1
     4     1     8    1
     5     5     6    1
     6     5     7    1
     7     5     8    1
     8     5     9    1
     9     9    10    1
    10    10    11    1
    11    11    12    1
    12    11    13    1
    13    12    21    1
    14    13    14    1
    15    13    19    1
    16    14    15    1
    17    15    16    1
    18    15    17    1
    19    15    18    1
    20    19    20    1
    21    19    21    1
    22    21    22    1
    23    22    23   ar
    24    22    31   ar
    25    23    24   ar
    26    24    25   ar
    27    25    26   ar
    28    25    31   ar
    29    26    27    1
    30    26    28   ar
    31    28    29   ar
    32    29    30   ar
    33    30    31   ar
    34    32    10    1
    35    33    10    1
    36    11    34    1
    37    13    35    1
    38    19    36    1
    39    21    37    1
    40    38    23    1
    41    39    29    1
    42    40    27    1
    43    41    27    1
    44    42    20    1
@<TRIPOS>SUBSTRUCTURE
     1 UNL1        1 TEMP              0 ****  ****    0 ROOT

########## Name:	7	2132.83
@<TRIPOS>MOLECULE
af2_protein.mol27	
 42 44 1 0 0
SMALL
GASTEIGER


@<TRIPOS>ATOM
      1 P         -10.0149   16.1151   -1.8061 P.3     1  UNL1        0.0544
      2 O         -11.0143   16.4365   -2.8448 O.co2   1  UNL1       -0.6615
      3 O         -10.3748   14.9499   -0.9288 O.co2   1  UNL1       -0.6615
      4 O          -9.5403   17.2961   -1.0480 O.co2   1  UNL1       -0.6615
      5 P          -7.2769   14.6606   -2.3030 P.3     1  UNL1        0.2491
      6 O          -7.7728   13.5321   -1.4605 O.co2   1  UNL1       -0.6337
      7 O          -6.1413   15.4781   -1.7967 O.co2   1  UNL1       -0.6337
      8 O          -8.6934   15.5795   -2.6288 O.3     1  UNL1       -0.0930
      9 O          -6.8636   14.0241   -3.7433 O.3     1  UNL1       -0.2057
     10 C          -6.0268   12.8869   -3.8211 C.3     1  UNL1        0.1232
     11 C          -4.7731   13.2568   -3.0842 C.3     1  UNL1        0.1214
     12 O          -4.8655   12.6096   -1.8108 O.3     1  UNL1       -0.3453
     13 C          -3.4836   12.7213   -3.7646 C.3     1  UNL1        0.1593
     14 O          -2.3913   13.6570   -3.5340 O.3     1  UNL1       -0.2421
     15 P          -2.4597   15.2492   -4.1481 P.3     1  UNL1       -0.0004
     16 O          -1.1196   15.3590   -4.7762 O.co2   1  UNL1       -0.6646
     17 O          -3.5990   15.1803   -5.0983 O.co2   1  UNL1       -0.6646
     18 O          -2.7327   16.1373   -2.9774 O.co2   1  UNL1       -0.6646
     19 C          -3.2704   11.4205   -3.0000 C.3     1  UNL1        0.1329
     20 O          -1.8985   10.9794   -3.1043 O.3     1  UNL1       -0.3845
     21 C          -3.6075   11.9851   -1.6058 C.3     1  UNL1        0.1668
     22 N          -3.8594   10.9996   -0.5303 N.ar    1  UNL1       -0.2855
     23 C          -3.0542   10.8881    0.5755 C.ar    1  UNL1        0.1004
     24 N          -3.4225    9.9614    1.4096 N.ar    1  UNL1       -0.2306
     25 C          -4.5916    9.3816    0.8210 C.ar    1  UNL1        0.1473
     26 C          -5.4841    8.3135    1.2619 C.ar    1  UNL1        0.1472
     27 N          -5.2464    7.5821    2.3681 N.pl3   1  UNL1       -0.3413
     28 N          -6.5474    8.0230    0.4668 N.ar    1  UNL1       -0.2188
     29 C          -6.6890    8.7186   -0.6711 C.ar    1  UNL1        0.1205
     30 N          -5.9416    9.7153   -1.2043 N.ar    1  UNL1       -0.2159
     31 C          -4.8742   10.0171   -0.3832 C.ar    1  UNL1        0.1674
     32 H          -6.5062   12.0292   -3.3493 H       1  UNL1        0.0631
     33 H          -5.7969   12.6617   -4.8625 H       1  UNL1        0.0631
     34 H          -4.7132   14.3377   -2.9565 H       1  UNL1        0.0650
     35 H          -3.6377   12.5399   -4.8283 H       1  UNL1        0.0694
     36 H          -3.9730   10.6461   -3.3078 H       1  UNL1        0.0667
     37 H          -2.8603   12.7148   -1.2937 H       1  UNL1        0.0866
     38 H          -2.1902   11.5154    0.7385 H       1  UNL1        0.1030
     39 H          -7.5459    8.4357   -1.2644 H       1  UNL1        0.1048
     40 H          -5.3958    7.9852    3.2820 H       1  UNL1        0.1438
     41 H          -4.9185    6.6306    2.2834 H       1  UNL1        0.1438
     42 H          -1.6611   10.4824   -2.3180 H       1  UNL1        0.2101
@<TRIPOS>BOND
     1     1     2    1
     2     1     3    1
     3     1     4    1
     4     1     8    1
     5     5     6    1
     6     5     7    1
     7     5     8    1
     8     5     9    1
     9     9    10    1
    10    10    11    1
    11    11    12    1
    12    11    13    1
    13    12    21    1
    14    13    14    1
    15    13    19    1
    16    14    15    1
    17    15    16    1
    18    15    17    1
    19    15    18    1
    20    19    20    1
    21    19    21    1
    22    21    22    1
    23    22    23   ar
    24    22    31   ar
    25    23    24   ar
    26    24    25   ar
    27    25    26   ar
    28    25    31   ar
    29    26    27    1
    30    26    28   ar
    31    28    29   ar
    32    29    30   ar
    33    30    31   ar
    34    32    10    1
    35    33    10    1
    36    11    34    1
    37    13    35    1
    38    19    36    1
    39    21    37    1
    40    38    23    1
    41    39    29    1
    42    40    27    1
    43    41    27    1
    44    42    20    1
@<TRIPOS>SUBSTRUCTURE
     1 UNL1        1 TEMP              0 ****  ****    0 ROOT

########## Name:	8	2158.48
@<TRIPOS>MOLECULE
af2_protein.mol28	
 42 44 1 0 0
SMALL
GASTEIGER


@<TRIPOS>ATOM
      1 P          -1.1408    8.1124   -3.7085 P.3     1  UNL1        0.0544
      2 O           0.0487    8.1978   -4.5796 O.co2   1  UNL1       -0.6615
      3 O          -0.8747    8.3856   -2.2554 O.co2   1  UNL1       -0.6615
      4 O          -1.9629    6.9013   -3.9371 O.co2   1  UNL1       -0.6615
      5 P          -3.4108   10.2726   -3.5110 P.3     1  UNL1        0.2491
      6 O          -3.0110   10.5005   -2.0907 O.co2   1  UNL1       -0.6337
      7 O          -4.7435    9.6697   -3.7848 O.co2   1  UNL1       -0.6337
      8 O          -2.1011    9.3696   -4.1636 O.3     1  UNL1       -0.0930
      9 O          -3.3244   11.7156   -4.2598 O.3     1  UNL1       -0.2057
     10 C          -3.9421   12.8598   -3.7043 C.3     1  UNL1        0.1232
     11 C          -5.3877   12.4956   -3.5333 C.3     1  UNL1        0.1214
     12 O          -5.5561   12.2170   -2.1394 O.3     1  UNL1       -0.3453
     13 C          -6.3561   13.6605   -3.8759 C.3     1  UNL1        0.1593
     14 O          -7.5890   13.1171   -4.4297 O.3     1  UNL1       -0.2421
     15 P          -7.5781   12.2453   -5.8982 P.3     1  UNL1       -0.0004
     16 O          -8.6986   12.9025   -6.6159 O.co2   1  UNL1       -0.6646
     17 O          -6.2252   12.5372   -6.4370 O.co2   1  UNL1       -0.6646
     18 O          -7.7598   10.8077   -5.5323 O.co2   1  UNL1       -0.6646
     19 C          -6.5864   14.2625   -2.4950 C.3     1  UNL1        0.1329
     20 O          -7.8032   15.0412   -2.4678 O.3     1  UNL1       -0.3845
     21 C          -6.7230   12.9225   -1.7455 C.3     1  UNL1        0.1668
     22 N          -6.6386   12.9729   -0.2685 N.ar    1  UNL1       -0.2855
     23 C          -7.6906   12.6344    0.5454 C.ar    1  UNL1        0.1004
     24 N          -7.4379   12.7490    1.8155 N.ar    1  UNL1       -0.2306
     25 C          -6.0842   13.2098    1.8802 C.ar    1  UNL1        0.1473
     26 C          -5.2057   13.5165    3.0054 C.ar    1  UNL1        0.1472
     27 N          -5.6313   13.4918    4.2834 N.pl3   1  UNL1       -0.3413
     28 N          -3.9367   13.9074    2.7158 N.ar    1  UNL1       -0.2188
     29 C          -3.5891   14.0047    1.4242 C.ar    1  UNL1        0.1205
     30 N          -4.2942   13.7660    0.2918 N.ar    1  UNL1       -0.2159
     31 C          -5.5758   13.3525    0.5936 C.ar    1  UNL1        0.1674
     32 H          -3.4947   13.1032   -2.7405 H       1  UNL1        0.0631
     33 H          -3.8466   13.7050   -4.3858 H       1  UNL1        0.0631
     34 H          -5.6296   11.6146   -4.1278 H       1  UNL1        0.0650
     35 H          -5.8950   14.3786   -4.5539 H       1  UNL1        0.0694
     36 H          -5.7261   14.8368   -2.1514 H       1  UNL1        0.0667
     37 H          -7.6207   12.3921   -2.0631 H       1  UNL1        0.0866
     38 H          -8.6448   12.3018    0.1640 H       1  UNL1        0.1030
     39 H          -2.5725   14.3290    1.2580 H       1  UNL1        0.1048
     40 H          -5.7936   12.6082    4.7449 H       1  UNL1        0.1438
     41 H          -5.7883   14.3571    4.7801 H       1  UNL1        0.1438
     42 H          -8.1740   15.0253   -1.5824 H       1  UNL1        0.2101
@<TRIPOS>BOND
     1     1     2    1
     2     1     3    1
     3     1     4    1
     4     1     8    1
     5     5     6    1
     6     5     7    1
     7     5     8    1
     8     5     9    1
     9     9    10    1
    10    10    11    1
    11    11    12    1
    12    11    13    1
    13    12    21    1
    14    13    14    1
    15    13    19    1
    16    14    15    1
    17    15    16    1
    18    15    17    1
    19    15    18    1
    20    19    20    1
    21    19    21    1
    22    21    22    1
    23    22    23   ar
    24    22    31   ar
    25    23    24   ar
    26    24    25   ar
    27    25    26   ar
    28    25    31   ar
    29    26    27    1
    30    26    28   ar
    31    28    29   ar
    32    29    30   ar
    33    30    31   ar
    34    32    10    1
    35    33    10    1
    36    11    34    1
    37    13    35    1
    38    19    36    1
    39    21    37    1
    40    38    23    1
    41    39    29    1
    42    40    27    1
    43    41    27    1
    44    42    20    1
@<TRIPOS>SUBSTRUCTURE
     1 UNL1        1 TEMP              0 ****  ****    0 ROOT

########## Name:	9	2126.68
@<TRIPOS>MOLECULE
af2_protein.mol29	
 42 44 1 0 0
SMALL
GASTEIGER


@<TRIPOS>ATOM
      1 P         -11.0231   11.8674   -3.8254 P.3     1  UNL1        0.0544
      2 O         -11.8825   10.6973   -4.0964 O.co2   1  UNL1       -0.6615
      3 O         -11.0712   12.3662   -2.4092 O.co2   1  UNL1       -0.6615
      4 O         -11.1487   12.9467   -4.8325 O.co2   1  UNL1       -0.6615
      5 P          -7.9008   11.7963   -3.5015 P.3     1  UNL1        0.2491
      6 O          -8.0809   12.2351   -2.0858 O.co2   1  UNL1       -0.6337
      7 O          -7.2461   12.7314   -4.4561 O.co2   1  UNL1       -0.6337
      8 O          -9.4800   11.3164   -3.9839 O.3     1  UNL1       -0.0930
      9 O          -7.0487   10.4098   -3.4579 O.3     1  UNL1       -0.2057
     10 C          -5.8526   10.3161   -2.7096 C.3     1  UNL1        0.1232
     11 C          -4.9639   11.4074   -3.2303 C.3     1  UNL1        0.1214
     12 O          -5.0233   12.4548   -2.2563 O.3     1  UNL1       -0.3453
     13 C          -3.4739   10.9827   -3.3388 C.3     1  UNL1        0.1593
     14 O          -2.8561   11.6703   -4.4646 O.3     1  UNL1       -0.2421
     15 P          -3.4007   11.3989   -6.0604 P.3     1  UNL1       -0.0004
     16 O          -2.1099   11.1687   -6.7555 O.co2   1  UNL1       -0.6646
     17 O          -4.2596   10.1968   -5.9085 O.co2   1  UNL1       -0.6646
     18 O          -4.1718   12.6179   -6.4519 O.co2   1  UNL1       -0.6646
     19 C          -2.9289   11.4930   -2.0103 C.3     1  UNL1        0.1329
     20 O          -1.4941   11.6530   -2.0684 O.3     1  UNL1       -0.3845
     21 C          -3.6771   12.8406   -2.0255 C.3     1  UNL1        0.1668
     22 N          -3.7253   13.5910   -0.7504 N.ar    1  UNL1       -0.2855
     23 C          -3.1319   14.8181   -0.5904 C.ar    1  UNL1        0.1004
     24 N          -3.2679   15.3228    0.6000 N.ar    1  UNL1       -0.2306
     25 C          -4.0268   14.3502    1.3263 C.ar    1  UNL1        0.1473
     26 C          -4.5251   14.3209    2.6984 C.ar    1  UNL1        0.1472
     27 N          -4.2236   15.2770    3.5985 N.pl3   1  UNL1       -0.3413
     28 N          -5.2589   13.2394    3.0711 N.ar    1  UNL1       -0.2188
     29 C          -5.4540   12.2705    2.1645 C.ar    1  UNL1        0.1205
     30 N          -5.0470   12.1609    0.8767 N.ar    1  UNL1       -0.2159
     31 C          -4.3179   13.2704    0.4998 C.ar    1  UNL1        0.1674
     32 H          -6.0552   10.4643   -1.6489 H       1  UNL1        0.0631
     33 H          -5.3859    9.3443   -2.8698 H       1  UNL1        0.0631
     34 H          -5.3272   11.7648   -4.1938 H       1  UNL1        0.0650
     35 H          -3.3710    9.9010   -3.4248 H       1  UNL1        0.0694
     36 H          -3.2363   10.8646   -1.1745 H       1  UNL1        0.0667
     37 H          -3.3131   13.4752   -2.8336 H       1  UNL1        0.0866
     38 H          -2.5986   15.3206   -1.3839 H       1  UNL1        0.1030
     39 H          -6.0354   11.4337    2.5226 H       1  UNL1        0.1048
     40 H          -4.6606   16.1853    3.5362 H       1  UNL1        0.1438
     41 H          -3.5602   15.0853    4.3355 H       1  UNL1        0.1438
     42 H          -1.2255   12.3547   -1.4708 H       1  UNL1        0.2101
@<TRIPOS>BOND
     1     1     2    1
     2     1     3    1
     3     1     4    1
     4     1     8    1
     5     5     6    1
     6     5     7    1
     7     5     8    1
     8     5     9    1
     9     9    10    1
    10    10    11    1
    11    11    12    1
    12    11    13    1
    13    12    21    1
    14    13    14    1
    15    13    19    1
    16    14    15    1
    17    15    16    1
    18    15    17    1
    19    15    18    1
    20    19    20    1
    21    19    21    1
    22    21    22    1
    23    22    23   ar
    24    22    31   ar
    25    23    24   ar
    26    24    25   ar
    27    25    26   ar
    28    25    31   ar
    29    26    27    1
    30    26    28   ar
    31    28    29   ar
    32    29    30   ar
    33    30    31   ar
    34    32    10    1
    35    33    10    1
    36    11    34    1
    37    13    35    1
    38    19    36    1
    39    21    37    1
    40    38    23    1
    41    39    29    1
    42    40    27    1
    43    41    27    1
    44    42    20    1
@<TRIPOS>SUBSTRUCTURE
     1 UNL1        1 TEMP              0 ****  ****    0 ROOT

########## Name:	10	2057.55
@<TRIPOS>MOLECULE
af2_protein.mol210	
 42 44 1 0 0
SMALL
GASTEIGER


@<TRIPOS>ATOM
      1 P          -0.5493    8.8652   -4.0430 P.3     1  UNL1        0.0544
      2 O           0.3671    9.0362   -5.1883 O.co2   1  UNL1       -0.6615
      3 O          -0.0895    9.5159   -2.7693 O.co2   1  UNL1       -0.6615
      4 O          -1.0167    7.4720   -3.8548 O.co2   1  UNL1       -0.6615
      5 P          -3.2581   10.3996   -3.6345 P.3     1  UNL1        0.2491
      6 O          -2.6664   11.0325   -2.4186 O.co2   1  UNL1       -0.6337
      7 O          -4.3876    9.4467   -3.4599 O.co2   1  UNL1       -0.6337
      8 O          -1.9012    9.7164   -4.4401 O.3     1  UNL1       -0.0930
      9 O          -3.7412   11.6128   -4.6067 O.3     1  UNL1       -0.2057
     10 C          -4.5385   12.6688   -4.1083 C.3     1  UNL1        0.1232
     11 C          -5.7540   12.0144   -3.5202 C.3     1  UNL1        0.1214
     12 O          -5.5542   12.0261   -2.1028 O.3     1  UNL1       -0.3453
     13 C          -7.0645   12.8021   -3.7928 C.3     1  UNL1        0.1593
     14 O          -8.1734   11.8660   -3.9201 O.3     1  UNL1       -0.2421
     15 P          -8.2046   10.7140   -5.1804 P.3     1  UNL1       -0.0004
     16 O          -9.5862   10.9009   -5.6891 O.co2   1  UNL1       -0.6646
     17 O          -7.1284   11.1945   -6.0840 O.co2   1  UNL1       -0.6646
     18 O          -7.8885    9.3962   -4.5501 O.co2   1  UNL1       -0.6646
     19 C          -7.1786   13.6268   -2.5164 C.3     1  UNL1        0.1329
     20 O          -8.5372   14.0737   -2.3103 O.3     1  UNL1       -0.3845
     21 C          -6.7720   12.4988   -1.5477 C.3     1  UNL1        0.1668
     22 N          -6.4136   12.9008   -0.1689 N.ar    1  UNL1       -0.2855
     23 C          -7.1398   12.5112    0.9286 C.ar    1  UNL1        0.1004
     24 N          -6.6833   12.9677    2.0571 N.ar    1  UNL1       -0.2306
     25 C          -5.5347   13.7444    1.7010 C.ar    1  UNL1        0.1473
     26 C          -4.5761   14.5005    2.5017 C.ar    1  UNL1        0.1472
     27 N          -4.7134   14.6634    3.8320 N.pl3   1  UNL1       -0.3413
     28 N          -3.5573   15.1106    1.8406 N.ar    1  UNL1       -0.2188
     29 C          -3.5166   14.9943    0.5052 C.ar    1  UNL1        0.1205
     30 N          -4.3339   14.3426   -0.3572 N.ar    1  UNL1       -0.2159
     31 C          -5.3555   13.7109    0.3223 C.ar    1  UNL1        0.1674
     32 H          -3.9976   13.2246   -3.3422 H       1  UNL1        0.0631
     33 H          -4.8278   13.3354   -4.9207 H       1  UNL1        0.0631
     34 H          -5.8454   10.9901   -3.8816 H       1  UNL1        0.0650
     35 H          -6.9740   13.4378   -4.6735 H       1  UNL1        0.0694
     36 H          -6.4696   14.4544   -2.5003 H       1  UNL1        0.0667
     37 H          -7.5237   11.7095   -1.5368 H       1  UNL1        0.0866
     38 H          -8.0139   11.8805    0.8607 H       1  UNL1        0.1030
     39 H          -2.6906   15.5086    0.0366 H       1  UNL1        0.1048
     40 H          -4.5194   13.8947    4.4577 H       1  UNL1        0.1438
     41 H          -5.0106   15.5543    4.2036 H       1  UNL1        0.1438
     42 H          -8.7038   14.1692   -1.3697 H       1  UNL1        0.2101
@<TRIPOS>BOND
     1     1     2    1
     2     1     3    1
     3     1     4    1
     4     1     8    1
     5     5     6    1
     6     5     7    1
     7     5     8    1
     8     5     9    1
     9     9    10    1
    10    10    11    1
    11    11    12    1
    12    11    13    1
    13    12    21    1
    14    13    14    1
    15    13    19    1
    16    14    15    1
    17    15    16    1
    18    15    17    1
    19    15    18    1
    20    19    20    1
    21    19    21    1
    22    21    22    1
    23    22    23   ar
    24    22    31   ar
    25    23    24   ar
    26    24    25   ar
    27    25    26   ar
    28    25    31   ar
    29    26    27    1
    30    26    28   ar
    31    28    29   ar
    32    29    30   ar
    33    30    31   ar
    34    32    10    1
    35    33    10    1
    36    11    34    1
    37    13    35    1
    38    19    36    1
    39    21    37    1
    40    38    23    1
    41    39    29    1
    42    40    27    1
    43    41    27    1
    44    42    20    1
@<TRIPOS>SUBSTRUCTURE
     1 UNL1        1 TEMP              0 ****  ****    0 ROOT

########## Name:	11	2117.9
@<TRIPOS>MOLECULE
af2_protein.mol211	
 42 44 1 0 0
SMALL
GASTEIGER


@<TRIPOS>ATOM
      1 P          -2.3069    7.8132   -4.3916 P.3     1  UNL1        0.0544
      2 O          -1.5576    7.7090   -5.6600 O.co2   1  UNL1       -0.6615
      3 O          -1.4965    8.2957   -3.2223 O.co2   1  UNL1       -0.6615
      4 O          -3.1288    6.6197   -4.0836 O.co2   1  UNL1       -0.6615
      5 P          -4.3585   10.0781   -3.6707 P.3     1  UNL1        0.2491
      6 O          -3.4371   10.5048   -2.5762 O.co2   1  UNL1       -0.6337
      7 O          -5.6794    9.5008   -3.3013 O.co2   1  UNL1       -0.6337
      8 O          -3.3933    9.0268   -4.6299 O.3     1  UNL1       -0.0930
      9 O          -4.6017   11.3825   -4.6141 O.3     1  UNL1       -0.2057
     10 C          -4.9736   12.6256   -4.0521 C.3     1  UNL1        0.1232
     11 C          -6.2283   12.3578   -3.2737 C.3     1  UNL1        0.1214
     12 O          -5.8296   12.3061   -1.8999 O.3     1  UNL1       -0.3453
     13 C          -7.2761   13.4981   -3.3920 C.3     1  UNL1        0.1593
     14 O          -8.6165   12.9316   -3.3249 O.3     1  UNL1       -0.2421
     15 P          -9.1665   11.8436   -4.5208 P.3     1  UNL1       -0.0004
     16 O         -10.4916   12.4316   -4.8383 O.co2   1  UNL1       -0.6646
     17 O          -8.1404   11.9872   -5.5848 O.co2   1  UNL1       -0.6646
     18 O          -9.1616   10.4895   -3.8880 O.co2   1  UNL1       -0.6646
     19 C          -6.9567   14.3163   -2.1466 C.3     1  UNL1        0.1329
     20 O          -8.0799   15.1439   -1.7708 O.3     1  UNL1       -0.3845
     21 C          -6.7614   13.1160   -1.1995 C.3     1  UNL1        0.1668
     22 N          -6.1042   13.3905    0.0982 N.ar    1  UNL1       -0.2855
     23 C          -6.7447   13.2298    1.3014 C.ar    1  UNL1        0.1004
     24 N          -6.0154   13.5281    2.3355 N.ar    1  UNL1       -0.2306
     25 C          -4.7545   13.9319    1.7910 C.ar    1  UNL1        0.1473
     26 C          -3.5107   14.3690    2.4184 C.ar    1  UNL1        0.1472
     27 N          -3.3991   14.5616    3.7471 N.pl3   1  UNL1       -0.3413
     28 N          -2.4656   14.6527    1.5972 N.ar    1  UNL1       -0.2188
     29 C          -2.6557   14.5332    0.2750 C.ar    1  UNL1        0.1205
     30 N          -3.7443   14.1542   -0.4375 N.ar    1  UNL1       -0.2159
     31 C          -4.7957   13.8506    0.4033 C.ar    1  UNL1        0.1674
     32 H          -4.1883   12.9947   -3.3924 H       1  UNL1        0.0631
     33 H          -5.1703   13.3499   -4.8424 H       1  UNL1        0.0631
     34 H          -6.6670   11.4071   -3.5770 H       1  UNL1        0.0650
     35 H          -7.1327   14.0810   -4.3017 H       1  UNL1        0.0694
     36 H          -6.0421   14.8975   -2.2634 H       1  UNL1        0.0667
     37 H          -7.7011   12.5838   -1.0515 H       1  UNL1        0.0866
     38 H          -7.7653   12.8856    1.3820 H       1  UNL1        0.1030
     39 H          -1.7928   14.7817   -0.3250 H       1  UNL1        0.1048
     40 H          -3.3495   13.7683    4.3702 H       1  UNL1        0.1438
     41 H          -3.3651   15.4996    4.1203 H       1  UNL1        0.1438
     42 H          -8.0724   15.2819   -0.8208 H       1  UNL1        0.2101
@<TRIPOS>BOND
     1     1     2    1
     2     1     3    1
     3     1     4    1
     4     1     8    1
     5     5     6    1
     6     5     7    1
     7     5     8    1
     8     5     9    1
     9     9    10    1
    10    10    11    1
    11    11    12    1
    12    11    13    1
    13    12    21    1
    14    13    14    1
    15    13    19    1
    16    14    15    1
    17    15    16    1
    18    15    17    1
    19    15    18    1
    20    19    20    1
    21    19    21    1
    22    21    22    1
    23    22    23   ar
    24    22    31   ar
    25    23    24   ar
    26    24    25   ar
    27    25    26   ar
    28    25    31   ar
    29    26    27    1
    30    26    28   ar
    31    28    29   ar
    32    29    30   ar
    33    30    31   ar
    34    32    10    1
    35    33    10    1
    36    11    34    1
    37    13    35    1
    38    19    36    1
    39    21    37    1
    40    38    23    1
    41    39    29    1
    42    40    27    1
    43    41    27    1
    44    42    20    1
@<TRIPOS>SUBSTRUCTURE
     1 UNL1        1 TEMP              0 ****  ****    0 ROOT

########## Name:	12	2247.61
@<TRIPOS>MOLECULE
af2_protein.mol212	
 42 44 1 0 0
SMALL
GASTEIGER


@<TRIPOS>ATOM
      1 P          -3.9033    6.7027   -3.6041 P.3     1  UNL1        0.0544
      2 O          -3.2464    6.1809   -4.8195 O.co2   1  UNL1       -0.6615
      3 O          -2.9649    7.0467   -2.4825 O.co2   1  UNL1       -0.6615
      4 O          -5.0722    5.9041   -3.1672 O.co2   1  UNL1       -0.6615
      5 P          -5.0746    9.5965   -3.2679 P.3     1  UNL1        0.2491
      6 O          -4.0509    9.8411   -2.2090 O.co2   1  UNL1       -0.6337
      7 O          -6.5079    9.5469   -2.8711 O.co2   1  UNL1       -0.6337
      8 O          -4.5261    8.1623   -4.0419 O.3     1  UNL1       -0.0930
      9 O          -4.8803   10.7633   -4.3865 O.3     1  UNL1       -0.2057
     10 C          -4.8102   12.1246   -4.0107 C.3     1  UNL1        0.1232
     11 C          -6.0732   12.3987   -3.2482 C.3     1  UNL1        0.1214
     12 O          -5.6985   12.4091   -1.8666 O.3     1  UNL1       -0.3453
     13 C          -6.6825   13.7938   -3.5560 C.3     1  UNL1        0.1593
     14 O          -8.1342   13.7188   -3.4606 O.3     1  UNL1       -0.2421
     15 P          -9.0293   12.7198   -4.5176 P.3     1  UNL1       -0.0004
     16 O         -10.0863   13.6637   -4.9581 O.co2   1  UNL1       -0.6646
     17 O          -8.0264   12.3659   -5.5543 O.co2   1  UNL1       -0.6646
     18 O          -9.4683   11.5424   -3.7083 O.co2   1  UNL1       -0.6646
     19 C          -6.0943   14.6244   -2.4218 C.3     1  UNL1        0.1329
     20 O          -6.8731   15.8212   -2.2009 O.3     1  UNL1       -0.3845
     21 C          -6.2989   13.5710   -1.3152 C.3     1  UNL1        0.1668
     22 N          -5.5727   13.7895   -0.0439 N.ar    1  UNL1       -0.2855
     23 C          -6.2161   14.0189    1.1465 C.ar    1  UNL1        0.1004
     24 N          -5.4170   14.1991    2.1561 N.ar    1  UNL1       -0.2306
     25 C          -4.1001   14.0823    1.6071 C.ar    1  UNL1        0.1473
     26 C          -2.7744   14.1650    2.2134 C.ar    1  UNL1        0.1472
     27 N          -2.5895   14.4923    3.5072 N.pl3   1  UNL1       -0.3413
     28 N          -1.7042   13.9693    1.3989 N.ar    1  UNL1       -0.2188
     29 C          -1.9387   13.7372    0.0990 C.ar    1  UNL1        0.1205
     30 N          -3.0997   13.6455   -0.5939 N.ar    1  UNL1       -0.2159
     31 C          -4.1822   13.8275    0.2425 C.ar    1  UNL1        0.1674
     32 H          -3.9391   12.3004   -3.3795 H       1  UNL1        0.0631
     33 H          -4.7636   12.7561   -4.8979 H       1  UNL1        0.0631
     34 H          -6.8071   11.6149   -3.4359 H       1  UNL1        0.0650
     35 H          -6.3638   14.1640   -4.5303 H       1  UNL1        0.0694
     36 H          -5.0397   14.8473   -2.5834 H       1  UNL1        0.0667
     37 H          -7.3605   13.4065   -1.1302 H       1  UNL1        0.0866
     38 H          -7.2920   14.0472    1.2367 H       1  UNL1        0.1030
     39 H          -1.0494   13.5998   -0.4982 H       1  UNL1        0.1048
     40 H          -2.7998   13.8220    4.2328 H       1  UNL1        0.1438
     41 H          -2.2407   15.4081    3.7514 H       1  UNL1        0.1438
     42 H          -6.8089   16.0794   -1.2785 H       1  UNL1        0.2101
@<TRIPOS>BOND
     1     1     2    1
     2     1     3    1
     3     1     4    1
     4     1     8    1
     5     5     6    1
     6     5     7    1
     7     5     8    1
     8     5     9    1
     9     9    10    1
    10    10    11    1
    11    11    12    1
    12    11    13    1
    13    12    21    1
    14    13    14    1
    15    13    19    1
    16    14    15    1
    17    15    16    1
    18    15    17    1
    19    15    18    1
    20    19    20    1
    21    19    21    1
    22    21    22    1
    23    22    23   ar
    24    22    31   ar
    25    23    24   ar
    26    24    25   ar
    27    25    26   ar
    28    25    31   ar
    29    26    27    1
    30    26    28   ar
    31    28    29   ar
    32    29    30   ar
    33    30    31   ar
    34    32    10    1
    35    33    10    1
    36    11    34    1
    37    13    35    1
    38    19    36    1
    39    21    37    1
    40    38    23    1
    41    39    29    1
    42    40    27    1
    43    41    27    1
    44    42    20    1
@<TRIPOS>SUBSTRUCTURE
     1 UNL1        1 TEMP              0 ****  ****    0 ROOT

########## Name:	13	2272.62
@<TRIPOS>MOLECULE
af2_protein.mol213	
 42 44 1 0 0
SMALL
GASTEIGER


@<TRIPOS>ATOM
      1 P          -8.7716   16.9955    0.6489 P.3     1  UNL1        0.0544
      2 O          -8.8858   18.4339    0.3344 O.co2   1  UNL1       -0.6615
      3 O          -9.6640   16.1027   -0.1657 O.co2   1  UNL1       -0.6615
      4 O          -8.8084   16.6964    2.0994 O.co2   1  UNL1       -0.6615
      5 P          -6.4072   15.1235   -0.2252 P.3     1  UNL1        0.2491
      6 O          -7.3818   14.3498   -1.0501 O.co2   1  UNL1       -0.6337
      7 O          -5.7916   14.4585    0.9552 O.co2   1  UNL1       -0.6337
      8 O          -7.2579   16.5660    0.1651 O.3     1  UNL1       -0.0930
      9 O          -5.2223   15.6083   -1.2309 O.3     1  UNL1       -0.2057
     10 C          -4.5844   14.6903   -2.0968 C.3     1  UNL1        0.1232
     11 C          -4.0453   13.6064   -1.2101 C.3     1  UNL1        0.1214
     12 O          -4.9471   12.5039   -1.3519 O.3     1  UNL1       -0.3453
     13 C          -2.6452   13.0973   -1.6492 C.3     1  UNL1        0.1593
     14 O          -1.8849   12.6986   -0.4724 O.3     1  UNL1       -0.2421
     15 P          -1.4671   13.8407    0.7267 P.3     1  UNL1       -0.0004
     16 O          -0.0242   13.5404    0.9009 O.co2   1  UNL1       -0.6646
     17 O          -1.7672   15.1334    0.0600 O.co2   1  UNL1       -0.6646
     18 O          -2.3604   13.5676    1.8934 O.co2   1  UNL1       -0.6646
     19 C          -3.0278   11.8905   -2.4975 C.3     1  UNL1        0.1329
     20 O          -1.9172   10.9748   -2.6229 O.3     1  UNL1       -0.3845
     21 C          -4.1284   11.3626   -1.5561 C.3     1  UNL1        0.1668
     22 N          -5.0500   10.3462   -2.1117 N.ar    1  UNL1       -0.2855
     23 C          -5.1174    9.0638   -1.6272 C.ar    1  UNL1        0.1004
     24 N          -5.9762    8.3073   -2.2440 N.ar    1  UNL1       -0.2306
     25 C          -6.5533    9.1499   -3.2472 C.ar    1  UNL1        0.1473
     26 C          -7.5837    8.9111   -4.2537 C.ar    1  UNL1        0.1472
     27 N          -8.1284    7.6959   -4.4577 N.pl3   1  UNL1       -0.3413
     28 N          -7.9335    9.9579   -5.0468 N.ar    1  UNL1       -0.2188
     29 C          -7.2960   11.1238   -4.8650 C.ar    1  UNL1        0.1205
     30 N          -6.3253   11.4808   -3.9894 N.ar    1  UNL1       -0.2159
     31 C          -5.9879   10.4183   -3.1758 C.ar    1  UNL1        0.1674
     32 H          -5.3001   14.2786   -2.8084 H       1  UNL1        0.0631
     33 H          -3.7685   15.1810   -2.6273 H       1  UNL1        0.0631
     34 H          -4.0181   13.9429   -0.1736 H       1  UNL1        0.0650
     35 H          -2.1125   13.8460   -2.2354 H       1  UNL1        0.0694
     36 H          -3.4270   12.1839   -3.4683 H       1  UNL1        0.0667
     37 H          -3.6996   11.0212   -0.6140 H       1  UNL1        0.0866
     38 H          -4.5103    8.7139   -0.8053 H       1  UNL1        0.1030
     39 H          -7.6103   11.9138   -5.5309 H       1  UNL1        0.1048
     40 H          -8.7922    7.3221   -3.7946 H       1  UNL1        0.1438
     41 H          -7.8728    7.1584   -5.2737 H       1  UNL1        0.1438
     42 H          -2.2498   10.0809   -2.7317 H       1  UNL1        0.2101
@<TRIPOS>BOND
     1     1     2    1
     2     1     3    1
     3     1     4    1
     4     1     8    1
     5     5     6    1
     6     5     7    1
     7     5     8    1
     8     5     9    1
     9     9    10    1
    10    10    11    1
    11    11    12    1
    12    11    13    1
    13    12    21    1
    14    13    14    1
    15    13    19    1
    16    14    15    1
    17    15    16    1
    18    15    17    1
    19    15    18    1
    20    19    20    1
    21    19    21    1
    22    21    22    1
    23    22    23   ar
    24    22    31   ar
    25    23    24   ar
    26    24    25   ar
    27    25    26   ar
    28    25    31   ar
    29    26    27    1
    30    26    28   ar
    31    28    29   ar
    32    29    30   ar
    33    30    31   ar
    34    32    10    1
    35    33    10    1
    36    11    34    1
    37    13    35    1
    38    19    36    1
    39    21    37    1
    40    38    23    1
    41    39    29    1
    42    40    27    1
    43    41    27    1
    44    42    20    1
@<TRIPOS>SUBSTRUCTURE
     1 UNL1        1 TEMP              0 ****  ****    0 ROOT

########## Name:	14	2212.89
@<TRIPOS>MOLECULE
af2_protein.mol214	
 42 44 1 0 0
SMALL
GASTEIGER


@<TRIPOS>ATOM
      1 P          -3.7674   14.3391    3.8416 P.3     1  UNL1        0.0544
      2 O          -4.3230   13.9999    5.1672 O.co2   1  UNL1       -0.6615
      3 O          -2.6428   13.4526    3.3874 O.co2   1  UNL1       -0.6615
      4 O          -3.4855   15.7826    3.6636 O.co2   1  UNL1       -0.6615
      5 P          -5.1307   13.7146    1.0829 P.3     1  UNL1        0.2491
      6 O          -3.9856   12.8087    0.7711 O.co2   1  UNL1       -0.6337
      7 O          -5.2934   14.9553    0.2775 O.co2   1  UNL1       -0.6337
      8 O          -4.9721   14.0066    2.7700 O.3     1  UNL1       -0.0930
      9 O          -6.4852   12.8214    0.9492 O.3     1  UNL1       -0.2057
     10 C          -6.7227   12.0301   -0.1983 C.3     1  UNL1        0.1232
     11 C          -6.6567   12.9757   -1.3616 C.3     1  UNL1        0.1214
     12 O          -5.3768   12.7602   -1.9654 O.3     1  UNL1       -0.3453
     13 C          -7.7210   12.6776   -2.4528 C.3     1  UNL1        0.1593
     14 O          -8.1304   13.9258   -3.0823 O.3     1  UNL1       -0.2421
     15 P          -8.9090   15.1471   -2.1773 P.3     1  UNL1       -0.0004
     16 O         -10.0536   15.4613   -3.0681 O.co2   1  UNL1       -0.6646
     17 O          -9.2627   14.4412   -0.9194 O.co2   1  UNL1       -0.6646
     18 O          -7.8952   16.2261   -1.9725 O.co2   1  UNL1       -0.6646
     19 C          -6.9170   11.8096   -3.4132 C.3     1  UNL1        0.1329
     20 O          -7.5183   11.8004   -4.7271 O.3     1  UNL1       -0.3845
     21 C          -5.6242   12.6471   -3.3585 C.3     1  UNL1        0.1668
     22 N          -4.3980   12.0169   -3.8976 N.ar    1  UNL1       -0.2855
     23 C          -3.7348   12.5064   -4.9950 C.ar    1  UNL1        0.1004
     24 N          -2.6841   11.8185   -5.3312 N.ar    1  UNL1       -0.2306
     25 C          -2.6195   10.7559   -4.3741 C.ar    1  UNL1        0.1473
     26 C          -1.6744    9.6582   -4.1904 C.ar    1  UNL1        0.1472
     27 N          -0.6696    9.4162   -5.0546 N.pl3   1  UNL1       -0.3413
     28 N          -1.8859    8.8244   -3.1382 N.ar    1  UNL1       -0.2188
     29 C          -2.9538    9.0538   -2.3601 C.ar    1  UNL1        0.1205
     30 N          -3.9081   10.0142   -2.4183 N.ar    1  UNL1       -0.2159
     31 C          -3.6771   10.8675   -3.4780 C.ar    1  UNL1        0.1674
     32 H          -5.9592   11.2579   -0.2922 H       1  UNL1        0.0631
     33 H          -7.7112   11.5747   -0.1412 H       1  UNL1        0.0631
     34 H          -6.7448   14.0064   -1.0179 H       1  UNL1        0.0650
     35 H          -8.5741   12.1370   -2.0431 H       1  UNL1        0.0694
     36 H          -6.7677   10.8020   -3.0254 H       1  UNL1        0.0667
     37 H          -5.7813   13.6295   -3.8039 H       1  UNL1        0.0866
     38 H          -4.0575   13.3861   -5.5321 H       1  UNL1        0.1030
     39 H          -3.0739    8.3526   -1.5476 H       1  UNL1        0.1048
     40 H           0.1423   10.0168   -5.0663 H       1  UNL1        0.1438
     41 H          -0.7282    8.6340   -5.6908 H       1  UNL1        0.1438
     42 H          -6.8366   11.6699   -5.3904 H       1  UNL1        0.2101
@<TRIPOS>BOND
     1     1     2    1
     2     1     3    1
     3     1     4    1
     4     1     8    1
     5     5     6    1
     6     5     7    1
     7     5     8    1
     8     5     9    1
     9     9    10    1
    10    10    11    1
    11    11    12    1
    12    11    13    1
    13    12    21    1
    14    13    14    1
    15    13    19    1
    16    14    15    1
    17    15    16    1
    18    15    17    1
    19    15    18    1
    20    19    20    1
    21    19    21    1
    22    21    22    1
    23    22    23   ar
    24    22    31   ar
    25    23    24   ar
    26    24    25   ar
    27    25    26   ar
    28    25    31   ar
    29    26    27    1
    30    26    28   ar
    31    28    29   ar
    32    29    30   ar
    33    30    31   ar
    34    32    10    1
    35    33    10    1
    36    11    34    1
    37    13    35    1
    38    19    36    1
    39    21    37    1
    40    38    23    1
    41    39    29    1
    42    40    27    1
    43    41    27    1
    44    42    20    1
@<TRIPOS>SUBSTRUCTURE
     1 UNL1        1 TEMP              0 ****  ****    0 ROOT

########## Name:	15	2119.28
@<TRIPOS>MOLECULE
af2_protein.mol215	
 42 44 1 0 0
SMALL
GASTEIGER


@<TRIPOS>ATOM
      1 P          -3.6226   13.0871    4.4853 P.3     1  UNL1        0.0544
      2 O          -4.1982   12.5969    5.7539 O.co2   1  UNL1       -0.6615
      3 O          -2.6194   12.1643    3.8537 O.co2   1  UNL1       -0.6615
      4 O          -3.1704   14.4969    4.5399 O.co2   1  UNL1       -0.6615
      5 P          -5.0866   13.1005    1.7076 P.3     1  UNL1        0.2491
      6 O          -4.0636   12.1323    1.2124 O.co2   1  UNL1       -0.6337
      7 O          -5.1082   14.4696    1.1248 O.co2   1  UNL1       -0.6337
      8 O          -4.8722   13.0835    3.4137 O.3     1  UNL1       -0.0930
      9 O          -6.5408   12.4076    1.4724 O.3     1  UNL1       -0.2057
     10 C          -6.8869   11.8544    0.2180 C.3     1  UNL1        0.1232
     11 C          -6.7218   12.9682   -0.7740 C.3     1  UNL1        0.1214
     12 O          -5.4853   12.7090   -1.4470 O.3     1  UNL1       -0.3453
     13 C          -7.8283   12.9850   -1.8639 C.3     1  UNL1        0.1593
     14 O          -8.0916   14.3607   -2.2640 O.3     1  UNL1       -0.2421
     15 P          -8.7050   15.4947   -1.1439 P.3     1  UNL1       -0.0004
     16 O          -9.8145   16.0865   -1.9322 O.co2   1  UNL1       -0.6646
     17 O          -9.1255   14.6333   -0.0096 O.co2   1  UNL1       -0.6646
     18 O          -7.5656   16.3974   -0.7966 O.co2   1  UNL1       -0.6646
     19 C          -7.1476   12.2031   -2.9809 C.3     1  UNL1        0.1329
     20 O          -7.7623   12.4860   -4.2576 O.3     1  UNL1       -0.3845
     21 C          -5.7623   12.8621   -2.8306 C.3     1  UNL1        0.1668
     22 N          -4.6284   12.1925   -3.5067 N.ar    1  UNL1       -0.2855
     23 C          -3.9249   12.7788   -4.5290 C.ar    1  UNL1        0.1004
     24 N          -2.9696   12.0391   -5.0090 N.ar    1  UNL1       -0.2306
     25 C          -3.0218   10.8303   -4.2439 C.ar    1  UNL1        0.1473
     26 C          -2.2143    9.6143   -4.2760 C.ar    1  UNL1        0.1472
     27 N          -1.2572    9.4052   -5.2009 N.pl3   1  UNL1       -0.3413
     28 N          -2.5117    8.6456   -3.3702 N.ar    1  UNL1       -0.2188
     29 C          -3.5340    8.8642   -2.5301 C.ar    1  UNL1        0.1205
     30 N          -4.3656    9.9257   -2.3968 N.ar    1  UNL1       -0.2159
     31 C          -4.0466   10.9124   -3.3075 C.ar    1  UNL1        0.1674
     32 H          -6.2238   11.0250   -0.0277 H       1  UNL1        0.0631
     33 H          -7.9226   11.5149    0.2313 H       1  UNL1        0.0631
     34 H          -6.6802   13.9293   -0.2615 H       1  UNL1        0.0650
     35 H          -8.7353   12.4868   -1.5216 H       1  UNL1        0.0694
     36 H          -7.1164   11.1341   -2.7706 H       1  UNL1        0.0667
     37 H          -5.8050   13.9170   -3.1016 H       1  UNL1        0.0866
     38 H          -4.1456   13.7681   -4.9020 H       1  UNL1        0.1030
     39 H          -3.7276    8.0550   -1.8415 H       1  UNL1        0.1048
     40 H          -0.3788    9.8999   -5.1396 H       1  UNL1        0.1438
     41 H          -1.4182    8.7538   -5.9557 H       1  UNL1        0.1438
     42 H          -7.1100   12.3901   -4.9554 H       1  UNL1        0.2101
@<TRIPOS>BOND
     1     1     2    1
     2     1     3    1
     3     1     4    1
     4     1     8    1
     5     5     6    1
     6     5     7    1
     7     5     8    1
     8     5     9    1
     9     9    10    1
    10    10    11    1
    11    11    12    1
    12    11    13    1
    13    12    21    1
    14    13    14    1
    15    13    19    1
    16    14    15    1
    17    15    16    1
    18    15    17    1
    19    15    18    1
    20    19    20    1
    21    19    21    1
    22    21    22    1
    23    22    23   ar
    24    22    31   ar
    25    23    24   ar
    26    24    25   ar
    27    25    26   ar
    28    25    31   ar
    29    26    27    1
    30    26    28   ar
    31    28    29   ar
    32    29    30   ar
    33    30    31   ar
    34    32    10    1
    35    33    10    1
    36    11    34    1
    37    13    35    1
    38    19    36    1
    39    21    37    1
    40    38    23    1
    41    39    29    1
    42    40    27    1
    43    41    27    1
    44    42    20    1
@<TRIPOS>SUBSTRUCTURE
     1 UNL1        1 TEMP              0 ****  ****    0 ROOT

########## Name:	16	2198.22
@<TRIPOS>MOLECULE
af2_protein.mol216	
 42 44 1 0 0
SMALL
GASTEIGER


@<TRIPOS>ATOM
      1 P          -8.0164   12.9139   -7.2101 P.3     1  UNL1        0.0544
      2 O          -7.9111   13.9276   -8.2789 O.co2   1  UNL1       -0.6615
      3 O          -7.0572   11.7648   -7.3390 O.co2   1  UNL1       -0.6615
      4 O          -9.4066   12.4888   -6.9248 O.co2   1  UNL1       -0.6615
      5 P          -6.9434   13.2429   -4.2777 P.3     1  UNL1        0.2491
      6 O          -5.9890   12.1269   -4.5477 O.co2   1  UNL1       -0.6337
      7 O          -8.0307   13.0222   -3.2860 O.co2   1  UNL1       -0.6337
      8 O          -7.5161   13.6769   -5.8399 O.3     1  UNL1       -0.0930
      9 O          -6.0507   14.5185   -3.8018 O.3     1  UNL1       -0.2057
     10 C          -5.0782   14.3847   -2.7842 C.3     1  UNL1        0.1232
     11 C          -5.8122   13.8434   -1.5926 C.3     1  UNL1        0.1214
     12 O          -5.4877   12.4504   -1.5360 O.3     1  UNL1       -0.3453
     13 C          -5.3414   14.4663   -0.2499 C.3     1  UNL1        0.1593
     14 O          -6.4678   14.5377    0.6710 O.3     1  UNL1       -0.2421
     15 P          -7.8308   15.5021    0.3119 P.3     1  UNL1       -0.0004
     16 O          -7.9981   16.2294    1.5947 O.co2   1  UNL1       -0.6646
     17 O          -7.3511   16.3287   -0.8249 O.co2   1  UNL1       -0.6646
     18 O          -8.9212   14.5567   -0.0768 O.co2   1  UNL1       -0.6646
     19 C          -4.3170   13.4342    0.2057 C.3     1  UNL1        0.1329
     20 O          -4.0897   13.5264    1.6297 O.3     1  UNL1       -0.3845
     21 C          -5.1419   12.1917   -0.1839 C.3     1  UNL1        0.1668
     22 N          -4.4201   10.9003   -0.2318 N.ar    1  UNL1       -0.2855
     23 C          -4.7113    9.8574    0.6116 C.ar    1  UNL1        0.1004
     24 N          -3.9684    8.8057    0.4321 N.ar    1  UNL1       -0.2306
     25 C          -3.0831    9.1597   -0.6357 C.ar    1  UNL1        0.1473
     26 C          -2.0254    8.4199   -1.3181 C.ar    1  UNL1        0.1472
     27 N          -1.6326    7.1921   -0.9267 N.pl3   1  UNL1       -0.3413
     28 N          -1.3837    9.0494   -2.3375 N.ar    1  UNL1       -0.2188
     29 C          -1.7498   10.3062   -2.6289 C.ar    1  UNL1        0.1205
     30 N          -2.6936   11.1087   -2.0798 N.ar    1  UNL1       -0.2159
     31 C          -3.3531   10.4570   -1.0576 C.ar    1  UNL1        0.1674
     32 H          -4.2954   13.6927   -3.0951 H       1  UNL1        0.0631
     33 H          -4.6465   15.3573   -2.5484 H       1  UNL1        0.0631
     34 H          -6.8869   13.9775   -1.7162 H       1  UNL1        0.0650
     35 H          -4.8847   15.4444   -0.4005 H       1  UNL1        0.0694
     36 H          -3.3887   13.5025   -0.3613 H       1  UNL1        0.0667
     37 H          -6.0356   12.1119    0.4349 H       1  UNL1        0.0866
     38 H          -5.4896    9.9062    1.3588 H       1  UNL1        0.1030
     39 H          -1.1975   10.7560   -3.4407 H       1  UNL1        0.1048
     40 H          -2.2164    6.3902   -1.1174 H       1  UNL1        0.1438
     41 H          -0.7543    7.0734   -0.4423 H       1  UNL1        0.1438
     42 H          -3.8434   12.6637    1.9712 H       1  UNL1        0.2101
@<TRIPOS>BOND
     1     1     2    1
     2     1     3    1
     3     1     4    1
     4     1     8    1
     5     5     6    1
     6     5     7    1
     7     5     8    1
     8     5     9    1
     9     9    10    1
    10    10    11    1
    11    11    12    1
    12    11    13    1
    13    12    21    1
    14    13    14    1
    15    13    19    1
    16    14    15    1
    17    15    16    1
    18    15    17    1
    19    15    18    1
    20    19    20    1
    21    19    21    1
    22    21    22    1
    23    22    23   ar
    24    22    31   ar
    25    23    24   ar
    26    24    25   ar
    27    25    26   ar
    28    25    31   ar
    29    26    27    1
    30    26    28   ar
    31    28    29   ar
    32    29    30   ar
    33    30    31   ar
    34    32    10    1
    35    33    10    1
    36    11    34    1
    37    13    35    1
    38    19    36    1
    39    21    37    1
    40    38    23    1
    41    39    29    1
    42    40    27    1
    43    41    27    1
    44    42    20    1
@<TRIPOS>SUBSTRUCTURE
     1 UNL1        1 TEMP              0 ****  ****    0 ROOT

########## Name:	17	2188.07
@<TRIPOS>MOLECULE
af2_protein.mol217	
 42 44 1 0 0
SMALL
GASTEIGER


@<TRIPOS>ATOM
      1 P          -2.8153   13.7360    3.7079 P.3     1  UNL1        0.0544
      2 O          -3.2015   13.3533    5.0810 O.co2   1  UNL1       -0.6615
      3 O          -1.8864   12.7721    3.0260 O.co2   1  UNL1       -0.6615
      4 O          -2.3923   15.1499    3.5785 O.co2   1  UNL1       -0.6615
      5 P          -4.6434   13.4882    1.1671 P.3     1  UNL1        0.2491
      6 O          -3.6754   12.4913    0.6210 O.co2   1  UNL1       -0.6337
      7 O          -4.7754   14.8001    0.4774 O.co2   1  UNL1       -0.6337
      8 O          -4.1986   13.6241    2.8226 O.3     1  UNL1       -0.0930
      9 O          -6.0998   12.7613    1.1945 O.3     1  UNL1       -0.2057
     10 C          -6.6006   12.0958    0.0518 C.3     1  UNL1        0.1232
     11 C          -6.5975   13.1194   -1.0454 C.3     1  UNL1        0.1214
     12 O          -5.4584   12.8154   -1.8573 O.3     1  UNL1       -0.3453
     13 C          -7.8420   13.0278   -1.9702 C.3     1  UNL1        0.1593
     14 O          -8.1889   14.3599   -2.4470 O.3     1  UNL1       -0.2421
     15 P          -8.6700   15.5815   -1.3548 P.3     1  UNL1       -0.0004
     16 O          -9.8897   16.0893   -2.0309 O.co2   1  UNL1       -0.6646
     17 O          -8.9124   14.8190   -0.1036 O.co2   1  UNL1       -0.6646
     18 O          -7.5150   16.5238   -1.2463 O.co2   1  UNL1       -0.6646
     19 C          -7.3019   12.1580   -3.0988 C.3     1  UNL1        0.1329
     20 O          -8.0908   12.3203   -4.2984 O.3     1  UNL1       -0.3845
     21 C          -5.9245   12.8428   -3.1977 C.3     1  UNL1        0.1668
     22 N          -4.8780   12.1286   -3.9632 N.ar    1  UNL1       -0.2855
     23 C          -4.3338   12.6300   -5.1191 C.ar    1  UNL1        0.1004
     24 N          -3.4359   11.8613   -5.6606 N.ar    1  UNL1       -0.2306
     25 C          -3.3558   10.7243   -4.7945 C.ar    1  UNL1        0.1473
     26 C          -2.5324    9.5191   -4.8327 C.ar    1  UNL1        0.1472
     27 N          -1.7056    9.2398   -5.8590 N.pl3   1  UNL1       -0.3413
     28 N          -2.6816    8.6310   -3.8148 N.ar    1  UNL1       -0.2188
     29 C          -3.5848    8.9116   -2.8640 C.ar    1  UNL1        0.1205
     30 N          -4.4148    9.9716   -2.7094 N.ar    1  UNL1       -0.2159
     31 C          -4.2453   10.8775   -3.7366 C.ar    1  UNL1        0.1674
     32 H          -5.9581   11.2552   -0.2106 H       1  UNL1        0.0631
     33 H          -7.6167   11.7474    0.2365 H       1  UNL1        0.0631
     34 H          -6.5086   14.1224   -0.6280 H       1  UNL1        0.0650
     35 H          -8.6824   12.5519   -1.4649 H       1  UNL1        0.0694
     36 H          -7.2178   11.1121   -2.8037 H       1  UNL1        0.0667
     37 H          -6.0279   13.8691   -3.5498 H       1  UNL1        0.0866
     38 H          -4.6258   13.5801   -5.5418 H       1  UNL1        0.1030
     39 H          -3.6644    8.1643   -2.0884 H       1  UNL1        0.1048
     40 H          -0.8386    9.7475   -5.9619 H       1  UNL1        0.1438
     41 H          -1.9528    8.5226   -6.5258 H       1  UNL1        0.1438
     42 H          -7.5375   12.1704   -5.0685 H       1  UNL1        0.2101
@<TRIPOS>BOND
     1     1     2    1
     2     1     3    1
     3     1     4    1
     4     1     8    1
     5     5     6    1
     6     5     7    1
     7     5     8    1
     8     5     9    1
     9     9    10    1
    10    10    11    1
    11    11    12    1
    12    11    13    1
    13    12    21    1
    14    13    14    1
    15    13    19    1
    16    14    15    1
    17    15    16    1
    18    15    17    1
    19    15    18    1
    20    19    20    1
    21    19    21    1
    22    21    22    1
    23    22    23   ar
    24    22    31   ar
    25    23    24   ar
    26    24    25   ar
    27    25    26   ar
    28    25    31   ar
    29    26    27    1
    30    26    28   ar
    31    28    29   ar
    32    29    30   ar
    33    30    31   ar
    34    32    10    1
    35    33    10    1
    36    11    34    1
    37    13    35    1
    38    19    36    1
    39    21    37    1
    40    38    23    1
    41    39    29    1
    42    40    27    1
    43    41    27    1
    44    42    20    1
@<TRIPOS>SUBSTRUCTURE
     1 UNL1        1 TEMP              0 ****  ****    0 ROOT

########## Name:	18	2216.12
@<TRIPOS>MOLECULE
af2_protein.mol218	
 42 44 1 0 0
SMALL
GASTEIGER


@<TRIPOS>ATOM
      1 P          -3.0883   13.7990    4.0993 P.3     1  UNL1        0.0544
      2 O          -3.5109   13.3367    5.4367 O.co2   1  UNL1       -0.6615
      3 O          -2.0340   12.9509    3.4467 O.co2   1  UNL1       -0.6615
      4 O          -2.7982   15.2503    4.0330 O.co2   1  UNL1       -0.6615
      5 P          -4.7405   13.4607    1.4507 P.3     1  UNL1        0.2491
      6 O          -3.6515   12.5791    0.9350 O.co2   1  UNL1       -0.6337
      7 O          -4.9611   14.7758    0.7903 O.co2   1  UNL1       -0.6337
      8 O          -4.4032   13.5844    3.1323 O.3     1  UNL1       -0.0930
      9 O          -6.1187   12.5975    1.3737 O.3     1  UNL1       -0.2057
     10 C          -6.4885   11.9249    0.1862 C.3     1  UNL1        0.1232
     11 C          -6.5243   12.9793   -0.8809 C.3     1  UNL1        0.1214
     12 O          -5.3180   12.8121   -1.6331 O.3     1  UNL1       -0.3453
     13 C          -7.7010   12.7995   -1.8786 C.3     1  UNL1        0.1593
     14 O          -8.1488   14.1072   -2.3385 O.3     1  UNL1       -0.2421
     15 P          -8.8060   15.2410   -1.2434 P.3     1  UNL1       -0.0004
     16 O         -10.0300   15.6518   -1.9753 O.co2   1  UNL1       -0.6646
     17 O          -9.0419   14.4185   -0.0295 O.co2   1  UNL1       -0.6646
     18 O          -7.7558   16.2852   -1.0424 O.co2   1  UNL1       -0.6646
     19 C          -7.0174   12.0224   -2.9971 C.3     1  UNL1        0.1329
     20 O          -7.7509   12.1477   -4.2356 O.3     1  UNL1       -0.3845
     21 C          -5.7097   12.8385   -2.9971 C.3     1  UNL1        0.1668
     22 N          -4.5581   12.2527   -3.7195 N.ar    1  UNL1       -0.2855
     23 C          -4.0021   12.8412   -4.8278 C.ar    1  UNL1        0.1004
     24 N          -3.0053   12.1798   -5.3368 N.ar    1  UNL1       -0.2306
     25 C          -2.8630   11.0280   -4.4987 C.ar    1  UNL1        0.1473
     26 C          -1.9256    9.9088   -4.5216 C.ar    1  UNL1        0.1472
     27 N          -1.0201    9.7433   -5.5053 N.pl3   1  UNL1       -0.3413
     28 N          -2.0437    8.9779   -3.5385 N.ar    1  UNL1       -0.2188
     29 C          -3.0211    9.1398   -2.6346 C.ar    1  UNL1        0.1205
     30 N          -3.9575   10.1101   -2.4998 N.ar    1  UNL1       -0.2159
     31 C          -3.8203   11.0611   -3.4905 C.ar    1  UNL1        0.1674
     32 H          -5.7539   11.1584   -0.0611 H       1  UNL1        0.0631
     33 H          -7.4746   11.4753    0.3020 H       1  UNL1        0.0631
     34 H          -6.5565   13.9721   -0.4320 H       1  UNL1        0.0650
     35 H          -8.5178   12.2293   -1.4361 H       1  UNL1        0.0694
     36 H          -6.8485   10.9802   -2.7260 H       1  UNL1        0.0667
     37 H          -5.8927   13.8612   -3.3267 H       1  UNL1        0.0866
     38 H          -4.3613   13.7723   -5.2408 H       1  UNL1        0.1030
     39 H          -3.0705    8.3635   -1.8855 H       1  UNL1        0.1048
     40 H          -0.2022   10.3346   -5.5438 H       1  UNL1        0.1438
     41 H          -1.1592    9.0279   -6.2045 H       1  UNL1        0.1438
     42 H          -7.1439   12.0764   -4.9760 H       1  UNL1        0.2101
@<TRIPOS>BOND
     1     1     2    1
     2     1     3    1
     3     1     4    1
     4     1     8    1
     5     5     6    1
     6     5     7    1
     7     5     8    1
     8     5     9    1
     9     9    10    1
    10    10    11    1
    11    11    12    1
    12    11    13    1
    13    12    21    1
    14    13    14    1
    15    13    19    1
    16    14    15    1
    17    15    16    1
    18    15    17    1
    19    15    18    1
    20    19    20    1
    21    19    21    1
    22    21    22    1
    23    22    23   ar
    24    22    31   ar
    25    23    24   ar
    26    24    25   ar
    27    25    26   ar
    28    25    31   ar
    29    26    27    1
    30    26    28   ar
    31    28    29   ar
    32    29    30   ar
    33    30    31   ar
    34    32    10    1
    35    33    10    1
    36    11    34    1
    37    13    35    1
    38    19    36    1
    39    21    37    1
    40    38    23    1
    41    39    29    1
    42    40    27    1
    43    41    27    1
    44    42    20    1
@<TRIPOS>SUBSTRUCTURE
     1 UNL1        1 TEMP              0 ****  ****    0 ROOT

########## Name:	19	2139.13
@<TRIPOS>MOLECULE
af2_protein.mol219	
 42 44 1 0 0
SMALL
GASTEIGER


@<TRIPOS>ATOM
      1 P          -1.8861    8.0588   -4.2198 P.3     1  UNL1        0.0544
      2 O          -0.8993    8.0460   -5.3185 O.co2   1  UNL1       -0.6615
      3 O          -1.3143    8.3742   -2.8669 O.co2   1  UNL1       -0.6615
      4 O          -2.7908    6.8856   -4.2158 O.co2   1  UNL1       -0.6615
      5 P          -3.9684   10.3439   -3.6704 P.3     1  UNL1        0.2491
      6 O          -3.2745   10.6055   -2.3745 O.co2   1  UNL1       -0.6337
      7 O          -5.3543    9.8031   -3.6364 O.co2   1  UNL1       -0.6337
      8 O          -2.8628    9.3469   -4.5311 O.3     1  UNL1       -0.0930
      9 O          -3.9741   11.7496   -4.4914 O.3     1  UNL1       -0.2057
     10 C          -4.4125   12.9463   -3.8788 C.3     1  UNL1        0.1232
     11 C          -5.8065   12.6671   -3.3988 C.3     1  UNL1        0.1214
     12 O          -5.6960   12.4529   -1.9878 O.3     1  UNL1       -0.3453
     13 C          -6.7720   13.8680   -3.5937 C.3     1  UNL1        0.1593
     14 O          -8.1155   13.3702   -3.8567 O.3     1  UNL1       -0.2421
     15 P          -8.4464   12.4422   -5.2517 P.3     1  UNL1       -0.0004
     16 O          -9.6605   13.1298   -5.7572 O.co2   1  UNL1       -0.6646
     17 O          -7.2221   12.6396   -6.0689 O.co2   1  UNL1       -0.6646
     18 O          -8.6125   11.0318   -4.7858 O.co2   1  UNL1       -0.6646
     19 C          -6.6855   14.5352   -2.2263 C.3     1  UNL1        0.1329
     20 O          -7.8347   15.3785   -1.9899 O.3     1  UNL1       -0.3845
     21 C          -6.7241   13.2349   -1.3994 C.3     1  UNL1        0.1668
     22 N          -6.3348   13.3386    0.0250 N.ar    1  UNL1       -0.2855
     23 C          -7.2103   13.0892    1.0521 C.ar    1  UNL1        0.1004
     24 N          -6.6962   13.2399    2.2367 N.ar    1  UNL1       -0.2306
     25 C          -5.3391   13.6296    2.0009 C.ar    1  UNL1        0.1473
     26 C          -4.2348   13.9325    2.9067 C.ar    1  UNL1        0.1472
     27 N          -4.3883   13.9809    4.2443 N.pl3   1  UNL1       -0.3413
     28 N          -3.0367   14.2431    2.3453 N.ar    1  UNL1       -0.2188
     29 C          -2.9589   14.2709    1.0067 C.ar    1  UNL1        0.1205
     30 N          -3.8923   14.0261    0.0553 N.ar    1  UNL1       -0.2159
     31 C          -5.1012   13.6941    0.6323 C.ar    1  UNL1        0.1674
     32 H          -3.7656   13.2029   -3.0398 H       1  UNL1        0.0631
     33 H          -4.4221   13.7577   -4.6064 H       1  UNL1        0.0631
     34 H          -6.2047   11.7777   -3.8871 H       1  UNL1        0.0650
     35 H          -6.4291   14.5331   -4.3862 H       1  UNL1        0.0694
     36 H          -5.7482   15.0756   -2.0943 H       1  UNL1        0.0667
     37 H          -7.6907   12.7414   -1.5006 H       1  UNL1        0.0866
     38 H          -8.2364   12.7936    0.8903 H       1  UNL1        0.1030
     39 H          -1.9850   14.5334    0.6208 H       1  UNL1        0.1048
     40 H          -4.4911   13.1260    4.7722 H       1  UNL1        0.1438
     41 H          -4.4009   14.8722    4.7192 H       1  UNL1        0.1438
     42 H          -8.0153   15.4173   -1.0479 H       1  UNL1        0.2101
@<TRIPOS>BOND
     1     1     2    1
     2     1     3    1
     3     1     4    1
     4     1     8    1
     5     5     6    1
     6     5     7    1
     7     5     8    1
     8     5     9    1
     9     9    10    1
    10    10    11    1
    11    11    12    1
    12    11    13    1
    13    12    21    1
    14    13    14    1
    15    13    19    1
    16    14    15    1
    17    15    16    1
    18    15    17    1
    19    15    18    1
    20    19    20    1
    21    19    21    1
    22    21    22    1
    23    22    23   ar
    24    22    31   ar
    25    23    24   ar
    26    24    25   ar
    27    25    26   ar
    28    25    31   ar
    29    26    27    1
    30    26    28   ar
    31    28    29   ar
    32    29    30   ar
    33    30    31   ar
    34    32    10    1
    35    33    10    1
    36    11    34    1
    37    13    35    1
    38    19    36    1
    39    21    37    1
    40    38    23    1
    41    39    29    1
    42    40    27    1
    43    41    27    1
    44    42    20    1
@<TRIPOS>SUBSTRUCTURE
     1 UNL1        1 TEMP              0 ****  ****    0 ROOT

########## Name:	0	572471
@<TRIPOS>MOLECULE
af2_protein.mol20	
 42 44 1 0 0
SMALL
GASTEIGER


@<TRIPOS>ATOM
      1 P          -4.0185   13.3512    4.2782 P.3     1  UNL1        0.0544
      2 O          -4.6328   12.8075    5.5062 O.co2   1  UNL1       -0.6615
      3 O          -2.8649   12.5494    3.7460 O.co2   1  UNL1       -0.6615
      4 O          -3.7429   14.8055    4.3415 O.co2   1  UNL1       -0.6615
      5 P          -5.2435   13.1625    1.3933 P.3     1  UNL1        0.2491
      6 O          -4.0760   12.3193    0.9995 O.co2   1  UNL1       -0.6337
      7 O          -5.3803   14.5134    0.7845 O.co2   1  UNL1       -0.6337
      8 O          -5.1678   13.1874    3.1110 O.3     1  UNL1       -0.0930
      9 O          -6.5812   12.2979    1.0566 O.3     1  UNL1       -0.2057
     10 C          -6.7562   11.6953   -0.2105 C.3     1  UNL1        0.1232
     11 C          -6.6447   12.8113   -1.2074 C.3     1  UNL1        0.1214
     12 O          -5.3357   12.6960   -1.7750 O.3     1  UNL1       -0.3453
     13 C          -7.6532   12.6849   -2.3818 C.3     1  UNL1        0.1593
     14 O          -8.0449   14.0152   -2.8278 O.3     1  UNL1       -0.2421
     15 P          -8.8775   15.0780   -1.7819 P.3     1  UNL1       -0.0004
     16 O          -9.9818   15.5249   -2.6669 O.co2   1  UNL1       -0.6646
     17 O          -9.2832   14.1831   -0.6682 O.co2   1  UNL1       -0.6646
     18 O          -7.8854   16.1141   -1.3625 O.co2   1  UNL1       -0.6646
     19 C          -6.7961   11.9798   -3.4261 C.3     1  UNL1        0.1329
     20 O          -7.3344   12.1747   -4.7527 O.3     1  UNL1       -0.3845
     21 C          -5.5157   12.8016   -3.1789 C.3     1  UNL1        0.1668
     22 N          -4.2592   12.2665   -3.7499 N.ar    1  UNL1       -0.2855
     23 C          -3.5498   12.9232   -4.7241 C.ar    1  UNL1        0.1004
     24 N          -2.4776   12.2989   -5.1125 N.ar    1  UNL1       -0.2306
     25 C          -2.4477   11.1000   -4.3310 C.ar    1  UNL1        0.1473
     26 C          -1.5014    9.9894   -4.2756 C.ar    1  UNL1        0.1472
     27 N          -0.4545    9.8879   -5.1174 N.pl3   1  UNL1       -0.3413
     28 N          -1.7541    9.0007   -3.3779 N.ar    1  UNL1       -0.2188
     29 C          -2.8599    9.1030   -2.6260 C.ar    1  UNL1        0.1205
     30 N          -3.8199   10.0583   -2.5795 N.ar    1  UNL1       -0.2159
     31 C          -3.5475   11.0674   -3.4806 C.ar    1  UNL1        0.1674
     32 H          -5.9815   10.9491   -0.3869 H       1  UNL1        0.0631
     33 H          -7.7418   11.2341   -0.2730 H       1  UNL1        0.0631
     34 H          -6.7593   13.7753   -0.7117 H       1  UNL1        0.0650
     35 H          -8.5194   12.0848   -2.1032 H       1  UNL1        0.0694
     36 H          -6.6552   10.9243   -3.1935 H       1  UNL1        0.0667
     37 H          -5.6614   13.8412   -3.4726 H       1  UNL1        0.0866
     38 H          -3.8555   13.8753   -5.1323 H       1  UNL1        0.1030
     39 H          -3.0112    8.2830   -1.9396 H       1  UNL1        0.1048
     40 H           0.3510   10.4850   -4.9961 H       1  UNL1        0.1438
     41 H          -0.4751    9.2147   -5.8700 H       1  UNL1        0.1438
     42 H          -6.6209   12.1512   -5.3946 H       1  UNL1        0.2101
@<TRIPOS>BOND
     1     1     2    1
     2     1     3    1
     3     1     4    1
     4     1     8    1
     5     5     6    1
     6     5     7    1
     7     5     8    1
     8     5     9    1
     9     9    10    1
    10    10    11    1
    11    11    12    1
    12    11    13    1
    13    12    21    1
    14    13    14    1
    15    13    19    1
    16    14    15    1
    17    15    16    1
    18    15    17    1
    19    15    18    1
    20    19    20    1
    21    19    21    1
    22    21    22    1
    23    22    23   ar
    24    22    31   ar
    25    23    24   ar
    26    24    25   ar
    27    25    26   ar
    28    25    31   ar
    29    26    27    1
    30    26    28   ar
    31    28    29   ar
    32    29    30   ar
    33    30    31   ar
    34    32    10    1
    35    33    10    1
    36    11    34    1
    37    13    35    1
    38    19    36    1
    39    21    37    1
    40    38    23    1
    41    39    29    1
    42    40    27    1
    43    41    27    1
    44    42    20    1
@<TRIPOS>SUBSTRUCTURE
     1 UNL1        1 TEMP              0 ****  ****    0 ROOT

########## Name:	1	572471
@<TRIPOS>MOLECULE
af2_protein.mol21	
 42 44 1 0 0
SMALL
GASTEIGER


@<TRIPOS>ATOM
      1 P          -3.7818    6.4557   -3.1552 P.3     1  UNL1        0.0544
      2 O          -2.5162    5.8163   -3.5678 O.co2   1  UNL1       -0.6615
      3 O          -3.9745    6.5639   -1.6692 O.co2   1  UNL1       -0.6615
      4 O          -4.9734    5.9351   -3.8651 O.co2   1  UNL1       -0.6615
      5 P          -4.3889    9.5341   -3.2740 P.3     1  UNL1        0.2491
      6 O          -4.4933    9.5271   -1.7847 O.co2   1  UNL1       -0.6337
      7 O          -5.6171    9.8032   -4.0699 O.co2   1  UNL1       -0.6337
      8 O          -3.6514    8.0240   -3.6383 O.3     1  UNL1       -0.0930
      9 O          -3.2607   10.6425   -3.6599 O.3     1  UNL1       -0.2057
     10 C          -3.3104   11.9477   -3.1183 C.3     1  UNL1        0.1232
     11 C          -4.6595   12.4887   -3.4912 C.3     1  UNL1        0.1214
     12 O          -5.4567   12.3953   -2.3060 O.3     1  UNL1       -0.3453
     13 C          -4.6272   13.9893   -3.8904 C.3     1  UNL1        0.1593
     14 O          -5.6438   14.2420   -4.9027 O.3     1  UNL1       -0.2421
     15 P          -5.5624   13.4850   -6.4314 P.3     1  UNL1       -0.0004
     16 O          -5.7808   14.6489   -7.3260 O.co2   1  UNL1       -0.6646
     17 O          -4.1854   12.9288   -6.4435 O.co2   1  UNL1       -0.6646
     18 O          -6.6168   12.4258   -6.4300 O.co2   1  UNL1       -0.6646
     19 C          -4.9876   14.6502   -2.5654 C.3     1  UNL1        0.1329
     20 O          -5.4898   15.9886   -2.7760 O.3     1  UNL1       -0.3845
     21 C          -6.0978   13.6548   -2.1748 C.3     1  UNL1        0.1668
     22 N          -6.5570   13.6865   -0.7679 N.ar    1  UNL1       -0.2855
     23 C          -7.8355   14.0385   -0.4139 C.ar    1  UNL1        0.1004
     24 N          -8.0562   14.0200    0.8672 N.ar    1  UNL1       -0.2306
     25 C          -6.8114   13.6171    1.4481 C.ar    1  UNL1        0.1473
     26 C          -6.4031   13.3906    2.8316 C.ar    1  UNL1        0.1472
     27 N          -7.2126   13.6498    3.8768 N.pl3   1  UNL1       -0.3413
     28 N          -5.1281   12.9701    3.0432 N.ar    1  UNL1       -0.2188
     29 C          -4.3327   12.8148    1.9747 C.ar    1  UNL1        0.1205
     30 N          -4.5711   12.9967    0.6532 N.ar    1  UNL1       -0.2159
     31 C          -5.8723   13.4062    0.4444 C.ar    1  UNL1        0.1674
     32 H          -3.2005   11.9139   -2.0344 H       1  UNL1        0.0631
     33 H          -2.5253   12.5647   -3.5554 H       1  UNL1        0.0631
     34 H          -5.0989   11.8931   -4.2914 H       1  UNL1        0.0650
     35 H          -3.6375   14.2916   -4.2326 H       1  UNL1        0.0694
     36 H          -4.1563   14.6321   -1.8607 H       1  UNL1        0.0667
     37 H          -6.9431   13.7312   -2.8587 H       1  UNL1        0.0866
     38 H          -8.5921   14.3072   -1.1364 H       1  UNL1        0.1030
     39 H          -3.3297   12.4889    2.2075 H       1  UNL1        0.1048
     40 H          -7.9868   13.0342    4.0810 H       1  UNL1        0.1438
     41 H          -7.0454   14.4600    4.4562 H       1  UNL1        0.1438
     42 H          -6.1071   16.2129   -2.0758 H       1  UNL1        0.2101
@<TRIPOS>BOND
     1     1     2    1
     2     1     3    1
     3     1     4    1
     4     1     8    1
     5     5     6    1
     6     5     7    1
     7     5     8    1
     8     5     9    1
     9     9    10    1
    10    10    11    1
    11    11    12    1
    12    11    13    1
    13    12    21    1
    14    13    14    1
    15    13    19    1
    16    14    15    1
    17    15    16    1
    18    15    17    1
    19    15    18    1
    20    19    20    1
    21    19    21    1
    22    21    22    1
    23    22    23   ar
    24    22    31   ar
    25    23    24   ar
    26    24    25   ar
    27    25    26   ar
    28    25    31   ar
    29    26    27    1
    30    26    28   ar
    31    28    29   ar
    32    29    30   ar
    33    30    31   ar
    34    32    10    1
    35    33    10    1
    36    11    34    1
    37    13    35    1
    38    19    36    1
    39    21    37    1
    40    38    23    1
    41    39    29    1
    42    40    27    1
    43    41    27    1
    44    42    20    1
@<TRIPOS>SUBSTRUCTURE
     1 UNL1        1 TEMP              0 ****  ****    0 ROOT

########## Name:	2	572471
@<TRIPOS>MOLECULE
af2_protein.mol22	
 42 44 1 0 0
SMALL
GASTEIGER


@<TRIPOS>ATOM
      1 P          -0.5961    9.2343   -4.7395 P.3     1  UNL1        0.0544
      2 O           0.1949    9.5811   -5.9375 O.co2   1  UNL1       -0.6615
      3 O          -0.0339    9.7508   -3.4457 O.co2   1  UNL1       -0.6615
      4 O          -0.9944    7.8087   -4.6788 O.co2   1  UNL1       -0.6615
      5 P          -3.3014   10.5839   -3.8914 P.3     1  UNL1        0.2491
      6 O          -2.6131   11.0955   -2.6693 O.co2   1  UNL1       -0.6337
      7 O          -4.3745    9.5661   -3.7276 O.co2   1  UNL1       -0.6337
      8 O          -2.0092   10.0634   -4.8996 O.3     1  UNL1       -0.0930
      9 O          -3.9204   11.8797   -4.6582 O.3     1  UNL1       -0.2057
     10 C          -4.6994   12.8319   -3.9613 C.3     1  UNL1        0.1232
     11 C          -5.8270   12.0576   -3.3443 C.3     1  UNL1        0.1214
     12 O          -5.4871   11.9112   -1.9615 O.3     1  UNL1       -0.3453
     13 C          -7.1844   12.8109   -3.3930 C.3     1  UNL1        0.1593
     14 O          -8.2678   11.8464   -3.5274 O.3     1  UNL1       -0.2421
     15 P          -8.3854   10.8508   -4.9100 P.3     1  UNL1       -0.0004
     16 O          -9.8165   11.0327   -5.2583 O.co2   1  UNL1       -0.6646
     17 O          -7.4219   11.4834   -5.8465 O.co2   1  UNL1       -0.6646
     18 O          -7.9631    9.4838   -4.4778 O.co2   1  UNL1       -0.6646
     19 C          -7.1985   13.4732   -2.0207 C.3     1  UNL1        0.1329
     20 O          -8.5441   13.8298   -1.6335 O.3     1  UNL1       -0.3845
     21 C          -6.6587   12.2588   -1.2397 C.3     1  UNL1        0.1668
     22 N          -6.1782   12.5115    0.1374 N.ar    1  UNL1       -0.2855
     23 C          -6.7774   11.9623    1.2433 C.ar    1  UNL1        0.1004
     24 N          -6.2263   12.3031    2.3704 N.ar    1  UNL1       -0.2306
     25 C          -5.1463   13.1682    2.0040 C.ar    1  UNL1        0.1473
     26 C          -4.1388   13.8679    2.7960 C.ar    1  UNL1        0.1472
     27 N          -4.1479   13.8664    4.1432 N.pl3   1  UNL1       -0.3413
     28 N          -3.2126   14.5979    2.1203 N.ar    1  UNL1       -0.2188
     29 C          -3.3017   14.6418    0.7828 C.ar    1  UNL1        0.1205
     30 N          -4.1783   14.0594   -0.0708 N.ar    1  UNL1       -0.2159
     31 C          -5.1047   13.3057    0.6208 C.ar    1  UNL1        0.1674
     32 H          -4.1040   13.3177   -3.1882 H       1  UNL1        0.0631
     33 H          -5.0911   13.5756   -4.6552 H       1  UNL1        0.0631
     34 H          -5.9191   11.0799   -3.8175 H       1  UNL1        0.0650
     35 H          -7.2041   13.5494   -4.1943 H       1  UNL1        0.0694
     36 H          -6.5200   14.3249   -1.9714 H       1  UNL1        0.0667
     37 H          -7.3781   11.4400   -1.2536 H       1  UNL1        0.0866
     38 H          -7.6319   11.3045    1.1826 H       1  UNL1        0.1030
     39 H          -2.5447   15.2451    0.3039 H       1  UNL1        0.1048
     40 H          -3.8662   13.0391    4.6493 H       1  UNL1        0.1438
     41 H          -4.4367   14.6927    4.6471 H       1  UNL1        0.1438
     42 H          -8.6190   13.8061   -0.6767 H       1  UNL1        0.2101
@<TRIPOS>BOND
     1     1     2    1
     2     1     3    1
     3     1     4    1
     4     1     8    1
     5     5     6    1
     6     5     7    1
     7     5     8    1
     8     5     9    1
     9     9    10    1
    10    10    11    1
    11    11    12    1
    12    11    13    1
    13    12    21    1
    14    13    14    1
    15    13    19    1
    16    14    15    1
    17    15    16    1
    18    15    17    1
    19    15    18    1
    20    19    20    1
    21    19    21    1
    22    21    22    1
    23    22    23   ar
    24    22    31   ar
    25    23    24   ar
    26    24    25   ar
    27    25    26   ar
    28    25    31   ar
    29    26    27    1
    30    26    28   ar
    31    28    29   ar
    32    29    30   ar
    33    30    31   ar
    34    32    10    1
    35    33    10    1
    36    11    34    1
    37    13    35    1
    38    19    36    1
    39    21    37    1
    40    38    23    1
    41    39    29    1
    42    40    27    1
    43    41    27    1
    44    42    20    1
@<TRIPOS>SUBSTRUCTURE
     1 UNL1        1 TEMP              0 ****  ****    0 ROOT

########## Name:	3	572471
@<TRIPOS>MOLECULE
af2_protein.mol23	
 42 44 1 0 0
SMALL
GASTEIGER


@<TRIPOS>ATOM
      1 P          -6.5991   18.0226   -0.2205 P.3     1  UNL1        0.0544
      2 O          -5.9530   19.3241   -0.4842 O.co2   1  UNL1       -0.6615
      3 O          -7.6046   17.6008   -1.2539 O.co2   1  UNL1       -0.6615
      4 O          -7.0867   17.8686    1.1700 O.co2   1  UNL1       -0.6615
      5 P          -5.2647   15.2109   -0.6356 P.3     1  UNL1        0.2491
      6 O          -6.2824   14.9318   -1.6918 O.co2   1  UNL1       -0.6337
      7 O          -5.3071   14.4120    0.6191 O.co2   1  UNL1       -0.6337
      8 O          -5.4002   16.9053   -0.3761 O.3     1  UNL1       -0.0930
      9 O          -3.8043   15.0201   -1.3294 O.3     1  UNL1       -0.2057
     10 C          -3.5010   13.8573   -2.0746 C.3     1  UNL1        0.1232
     11 C          -3.7416   12.7061   -1.1425 C.3     1  UNL1        0.1214
     12 O          -5.0001   12.1467   -1.5328 O.3     1  UNL1       -0.3453
     13 C          -2.6871   11.5746   -1.2837 C.3     1  UNL1        0.1593
     14 O          -2.4799   10.9426    0.0123 O.3     1  UNL1       -0.2421
     15 P          -1.8472   11.8306    1.3268 P.3     1  UNL1       -0.0004
     16 O          -0.7915   10.9023    1.8023 O.co2   1  UNL1       -0.6646
     17 O          -1.3519   13.0682    0.6720 O.co2   1  UNL1       -0.6646
     18 O          -2.9937   12.0820    2.2520 O.co2   1  UNL1       -0.6646
     19 C          -3.3965   10.6355   -2.2517 C.3     1  UNL1        0.1329
     20 O          -2.8489    9.3009   -2.1707 O.3     1  UNL1       -0.3845
     21 C          -4.7910   10.7446   -1.6040 C.3     1  UNL1        0.1668
     22 N          -5.9359   10.2441   -2.3976 N.ar    1  UNL1       -0.2855
     23 C          -6.7012    9.1759   -2.0011 C.ar    1  UNL1        0.1004
     24 N          -7.6569    8.8712   -2.8282 N.ar    1  UNL1       -0.2306
     25 C          -7.5368    9.8199   -3.8934 C.ar    1  UNL1        0.1473
     26 C          -8.3115   10.0270   -5.1136 C.ar    1  UNL1        0.1472
     27 N          -9.3037    9.1973   -5.4904 N.pl3   1  UNL1       -0.3413
     28 N          -7.9466   11.0629   -5.9141 N.ar    1  UNL1       -0.2188
     29 C          -6.8933   11.8043   -5.5406 C.ar    1  UNL1        0.1205
     30 N          -6.0857   11.7209   -4.4556 N.ar    1  UNL1       -0.2159
     31 C          -6.4729   10.6784   -3.6385 C.ar    1  UNL1        0.1674
     32 H          -4.1518   13.7836   -2.9459 H       1  UNL1        0.0631
     33 H          -2.4570   13.8745   -2.3871 H       1  UNL1        0.0631
     34 H          -3.7860   13.0562   -0.1112 H       1  UNL1        0.0650
     35 H          -1.7521   11.9483   -1.7010 H       1  UNL1        0.0694
     36 H          -3.3889   11.0189   -3.2719 H       1  UNL1        0.0667
     37 H          -4.7895   10.3032   -0.6073 H       1  UNL1        0.0866
     38 H          -6.5249    8.6359   -1.0825 H       1  UNL1        0.1030
     39 H          -6.6463   12.6053   -6.2215 H       1  UNL1        0.1048
     40 H         -10.1916    9.2204   -5.0095 H       1  UNL1        0.1438
     41 H          -9.1597    8.5519   -6.2539 H       1  UNL1        0.1438
     42 H          -3.5296    8.6613   -2.3927 H       1  UNL1        0.2101
@<TRIPOS>BOND
     1     1     2    1
     2     1     3    1
     3     1     4    1
     4     1     8    1
     5     5     6    1
     6     5     7    1
     7     5     8    1
     8     5     9    1
     9     9    10    1
    10    10    11    1
    11    11    12    1
    12    11    13    1
    13    12    21    1
    14    13    14    1
    15    13    19    1
    16    14    15    1
    17    15    16    1
    18    15    17    1
    19    15    18    1
    20    19    20    1
    21    19    21    1
    22    21    22    1
    23    22    23   ar
    24    22    31   ar
    25    23    24   ar
    26    24    25   ar
    27    25    26   ar
    28    25    31   ar
    29    26    27    1
    30    26    28   ar
    31    28    29   ar
    32    29    30   ar
    33    30    31   ar
    34    32    10    1
    35    33    10    1
    36    11    34    1
    37    13    35    1
    38    19    36    1
    39    21    37    1
    40    38    23    1
    41    39    29    1
    42    40    27    1
    43    41    27    1
    44    42    20    1
@<TRIPOS>SUBSTRUCTURE
     1 UNL1        1 TEMP              0 ****  ****    0 ROOT

########## Name:	4	572471
@<TRIPOS>MOLECULE
af2_protein.mol24	
 42 44 1 0 0
SMALL
GASTEIGER


@<TRIPOS>ATOM
      1 P          -0.2068   10.5201   -5.0694 P.3     1  UNL1        0.0544
      2 O           0.3934   11.0181   -6.3235 O.co2   1  UNL1       -0.6615
      3 O           0.2936   11.1943   -3.8237 O.co2   1  UNL1       -0.6615
      4 O          -0.2348    9.0424   -4.9663 O.co2   1  UNL1       -0.6615
      5 P          -3.1004   11.1842   -4.0474 P.3     1  UNL1        0.2491
      6 O          -2.4817   11.8829   -2.8819 O.co2   1  UNL1       -0.6337
      7 O          -3.8750    9.9384   -3.7981 O.co2   1  UNL1       -0.6337
      8 O          -1.7885   10.9708   -5.1384 O.3     1  UNL1       -0.0930
      9 O          -4.0699   12.2662   -4.7821 O.3     1  UNL1       -0.2057
     10 C          -5.0131   13.0158   -4.0419 C.3     1  UNL1        0.1232
     11 C          -5.8709   12.0047   -3.3394 C.3     1  UNL1        0.1214
     12 O          -5.4155   11.9845   -1.9825 O.3     1  UNL1       -0.3453
     13 C          -7.3727   12.3988   -3.3004 C.3     1  UNL1        0.1593
     14 O          -8.1900   11.1938   -3.3484 O.3     1  UNL1       -0.2421
     15 P          -8.1477   10.1625   -4.7090 P.3     1  UNL1       -0.0004
     16 O          -9.5989    9.9768   -4.9579 O.co2   1  UNL1       -0.6646
     17 O          -7.4343   10.9872   -5.7174 O.co2   1  UNL1       -0.6646
     18 O          -7.3726    8.9540   -4.2936 O.co2   1  UNL1       -0.6646
     19 C          -7.4605   13.0745   -1.9373 C.3     1  UNL1        0.1329
     20 O          -8.8241   13.0991   -1.4603 O.3     1  UNL1       -0.3845
     21 C          -6.5869   12.0523   -1.1837 C.3     1  UNL1        0.1668
     22 N          -6.0948   12.4531    0.1536 N.ar    1  UNL1       -0.2855
     23 C          -6.4655   11.8036    1.3044 C.ar    1  UNL1        0.1004
     24 N          -5.9433   12.3004    2.3865 N.ar    1  UNL1       -0.2306
     25 C          -5.1376   13.3946    1.9362 C.ar    1  UNL1        0.1473
     26 C          -4.2851   14.3423    2.6482 C.ar    1  UNL1        0.1472
     27 N          -4.2053   14.3753    3.9927 N.pl3   1  UNL1       -0.3413
     28 N          -3.6149   15.2591    1.9017 N.ar    1  UNL1       -0.2188
     29 C          -3.7994   15.2432    0.5734 C.ar    1  UNL1        0.1205
     30 N          -4.5585   14.4397   -0.2105 N.ar    1  UNL1       -0.2159
     31 C          -5.2221   13.5002    0.5521 C.ar    1  UNL1        0.1674
     32 H          -4.5073   13.6543   -3.3176 H       1  UNL1        0.0631
     33 H          -5.6213   13.6208   -4.7143 H       1  UNL1        0.0631
     34 H          -5.7488   11.0220   -3.7948 H       1  UNL1        0.0650
     35 H          -7.6272   13.0876   -4.1059 H       1  UNL1        0.0694
     36 H          -7.0123   14.0681   -1.9446 H       1  UNL1        0.0667
     37 H          -7.0804   11.0815   -1.1386 H       1  UNL1        0.0866
     38 H          -7.1325   10.9542    1.3105 H       1  UNL1        0.1030
     39 H          -3.2485   16.0011    0.0364 H       1  UNL1        0.1048
     40 H          -3.6950   13.6570    4.4863 H       1  UNL1        0.1438
     41 H          -4.6561   15.1185    4.5071 H       1  UNL1        0.1438
     42 H          -8.8280   13.0838   -0.5004 H       1  UNL1        0.2101
@<TRIPOS>BOND
     1     1     2    1
     2     1     3    1
     3     1     4    1
     4     1     8    1
     5     5     6    1
     6     5     7    1
     7     5     8    1
     8     5     9    1
     9     9    10    1
    10    10    11    1
    11    11    12    1
    12    11    13    1
    13    12    21    1
    14    13    14    1
    15    13    19    1
    16    14    15    1
    17    15    16    1
    18    15    17    1
    19    15    18    1
    20    19    20    1
    21    19    21    1
    22    21    22    1
    23    22    23   ar
    24    22    31   ar
    25    23    24   ar
    26    24    25   ar
    27    25    26   ar
    28    25    31   ar
    29    26    27    1
    30    26    28   ar
    31    28    29   ar
    32    29    30   ar
    33    30    31   ar
    34    32    10    1
    35    33    10    1
    36    11    34    1
    37    13    35    1
    38    19    36    1
    39    21    37    1
    40    38    23    1
    41    39    29    1
    42    40    27    1
    43    41    27    1
    44    42    20    1
@<TRIPOS>SUBSTRUCTURE
     1 UNL1        1 TEMP              0 ****  ****    0 ROOT

########## Name:	5	572471
@<TRIPOS>MOLECULE
af2_protein.mol25	
 42 44 1 0 0
SMALL
GASTEIGER


@<TRIPOS>ATOM
      1 P          -2.0028   17.6624   -1.8476 P.3     1  UNL1        0.0544
      2 O          -0.6758   18.0115   -1.3015 O.co2   1  UNL1       -0.6615
      3 O          -1.9819   17.1231   -3.2496 O.co2   1  UNL1       -0.6615
      4 O          -3.0298   18.7090   -1.6366 O.co2   1  UNL1       -0.6615
      5 P          -3.6705   15.1131   -1.0869 P.3     1  UNL1        0.2491
      6 O          -3.5270   14.6507   -2.4992 O.co2   1  UNL1       -0.6337
      7 O          -5.0245   15.4901   -0.5980 O.co2   1  UNL1       -0.6337
      8 O          -2.5145   16.3790   -0.9526 O.3     1  UNL1       -0.0930
      9 O          -3.0844   13.9238   -0.1422 O.3     1  UNL1       -0.2057
     10 C          -3.5057   12.5851   -0.3151 C.3     1  UNL1        0.1232
     11 C          -4.9999   12.6112   -0.1793 C.3     1  UNL1        0.1214
     12 O          -5.5129   12.5269   -1.5131 O.3     1  UNL1       -0.3453
     13 C          -5.5648   11.3886    0.5943 C.3     1  UNL1        0.1593
     14 O          -6.7524   11.7922    1.3351 O.3     1  UNL1       -0.2421
     15 P          -6.6531   12.9600    2.5772 P.3     1  UNL1       -0.0004
     16 O          -7.4087   12.2775    3.6568 O.co2   1  UNL1       -0.6646
     17 O          -5.1891   13.0685    2.8022 O.co2   1  UNL1       -0.6646
     18 O          -7.2498   14.2128    2.0218 O.co2   1  UNL1       -0.6646
     19 C          -5.9197   10.4552   -0.5568 C.3     1  UNL1        0.1329
     20 O          -6.8897    9.4684   -0.1408 O.3     1  UNL1       -0.3845
     21 C          -6.5285   11.5363   -1.4715 C.3     1  UNL1        0.1668
     22 N          -6.7388   11.1686   -2.8899 N.ar    1  UNL1       -0.2855
     23 C          -7.9852   11.1008   -3.4604 C.ar    1  UNL1        0.1004
     24 N          -7.9780   10.7518   -4.7128 N.ar    1  UNL1       -0.2306
     25 C          -6.5956   10.5621   -5.0328 C.ar    1  UNL1        0.1473
     26 C          -5.9188   10.1852   -6.2704 C.ar    1  UNL1        0.1472
     27 N          -6.5901    9.8348   -7.3846 N.pl3   1  UNL1       -0.3413
     28 N          -4.5612   10.1261   -6.2442 N.ar    1  UNL1       -0.2188
     29 C          -3.9434   10.3951   -5.0846 C.ar    1  UNL1        0.1205
     30 N          -4.4380   10.7426   -3.8718 N.ar    1  UNL1       -0.2159
     31 C          -5.8155   10.8180   -3.9104 C.ar    1  UNL1        0.1674
     32 H          -3.2199   12.2211   -1.3020 H       1  UNL1        0.0631
     33 H          -3.0702   11.9525    0.4582 H       1  UNL1        0.0631
     34 H          -5.3216   13.5397    0.2924 H       1  UNL1        0.0650
     35 H          -4.8142   10.9480    1.2503 H       1  UNL1        0.0694
     36 H          -5.0349    9.9972   -0.9987 H       1  UNL1        0.0667
     37 H          -7.4435   11.9391   -1.0372 H       1  UNL1        0.0866
     38 H          -8.8927   11.3184   -2.9166 H       1  UNL1        0.1030
     39 H          -2.8666   10.3221   -5.1243 H       1  UNL1        0.1048
     40 H          -7.0532   10.5410   -7.9385 H       1  UNL1        0.1438
     41 H          -6.6304    8.8656   -7.6661 H       1  UNL1        0.1438
     42 H          -7.4265    9.2097   -0.8935 H       1  UNL1        0.2101
@<TRIPOS>BOND
     1     1     2    1
     2     1     3    1
     3     1     4    1
     4     1     8    1
     5     5     6    1
     6     5     7    1
     7     5     8    1
     8     5     9    1
     9     9    10    1
    10    10    11    1
    11    11    12    1
    12    11    13    1
    13    12    21    1
    14    13    14    1
    15    13    19    1
    16    14    15    1
    17    15    16    1
    18    15    17    1
    19    15    18    1
    20    19    20    1
    21    19    21    1
    22    21    22    1
    23    22    23   ar
    24    22    31   ar
    25    23    24   ar
    26    24    25   ar
    27    25    26   ar
    28    25    31   ar
    29    26    27    1
    30    26    28   ar
    31    28    29   ar
    32    29    30   ar
    33    30    31   ar
    34    32    10    1
    35    33    10    1
    36    11    34    1
    37    13    35    1
    38    19    36    1
    39    21    37    1
    40    38    23    1
    41    39    29    1
    42    40    27    1
    43    41    27    1
    44    42    20    1
@<TRIPOS>SUBSTRUCTURE
     1 UNL1        1 TEMP              0 ****  ****    0 ROOT

########## Name:	6	572471
@<TRIPOS>MOLECULE
af2_protein.mol26	
 42 44 1 0 0
SMALL
GASTEIGER


@<TRIPOS>ATOM
      1 P          -8.6603    9.6652    2.6651 P.3     1  UNL1        0.0544
      2 O          -8.6907    9.7629    4.1384 O.co2   1  UNL1       -0.6615
      3 O          -9.4945   10.6906    1.9513 O.co2   1  UNL1       -0.6615
      4 O          -8.8573    8.2888    2.1536 O.co2   1  UNL1       -0.6615
      5 P          -6.2854   10.5853    0.8288 P.3     1  UNL1        0.2491
      6 O          -7.1961   11.6104    0.2382 O.co2   1  UNL1       -0.6337
      7 O          -5.8189    9.4681   -0.0364 O.co2   1  UNL1       -0.6337
      8 O          -7.1206   10.0607    2.2374 O.3     1  UNL1       -0.0930
      9 O          -4.9866   11.3845    1.3988 O.3     1  UNL1       -0.2057
     10 C          -4.2952   12.3160    0.5904 C.3     1  UNL1        0.1232
     11 C          -3.8891   11.5597   -0.6404 C.3     1  UNL1        0.1214
     12 O          -4.8096   11.9570   -1.6621 O.3     1  UNL1       -0.3453
     13 C          -2.4699   11.9347   -1.1478 C.3     1  UNL1        0.1593
     14 O          -1.8498   10.7657   -1.7568 O.3     1  UNL1       -0.2421
     15 P          -1.5184    9.3696   -0.8307 P.3     1  UNL1       -0.0004
     16 O          -0.1127    9.1052   -1.2263 O.co2   1  UNL1       -0.6646
     17 O          -1.7023    9.8542    0.5611 O.co2   1  UNL1       -0.6646
     18 O          -2.5366    8.3512   -1.2305 O.co2   1  UNL1       -0.6646
     19 C          -2.8049   12.9924   -2.1924 C.3     1  UNL1        0.1329
     20 O          -1.7202   13.1499   -3.1338 O.3     1  UNL1       -0.3845
     21 C          -4.0148   12.2551   -2.7996 C.3     1  UNL1        0.1668
     22 N          -4.9092   13.0478   -3.6730 N.ar    1  UNL1       -0.2855
     23 C          -5.0714   12.7763   -5.0085 C.ar    1  UNL1        0.1004
     24 N          -5.8878   13.5830   -5.6193 N.ar    1  UNL1       -0.2306
     25 C          -6.3282   14.4948   -4.6074 C.ar    1  UNL1        0.1473
     26 C          -7.2567   15.6212   -4.6397 C.ar    1  UNL1        0.1472
     27 N          -7.8198   16.0624   -5.7813 N.pl3   1  UNL1       -0.3413
     28 N          -7.4856   16.2728   -3.4692 N.ar    1  UNL1       -0.2188
     29 C          -6.8298   15.8520   -2.3777 C.ar    1  UNL1        0.1205
     30 N          -5.9428   14.8419   -2.2059 N.ar    1  UNL1       -0.2159
     31 C          -5.7289   14.1736   -3.3943 C.ar    1  UNL1        0.1674
     32 H          -4.9475   13.1487    0.3271 H       1  UNL1        0.0631
     33 H          -3.4121   12.6828    1.1133 H       1  UNL1        0.0631
     34 H          -3.9575   10.4860   -0.4654 H       1  UNL1        0.0650
     35 H          -1.8534   12.3437   -0.3473 H       1  UNL1        0.0694
     36 H          -3.0910   13.9403   -1.7365 H       1  UNL1        0.0667
     37 H          -3.6980   11.3401   -3.3000 H       1  UNL1        0.0866
     38 H          -4.5652   11.9636   -5.5083 H       1  UNL1        0.1030
     39 H          -7.0455   16.4149   -1.4816 H       1  UNL1        0.1048
     40 H          -8.5613   15.5325   -6.2165 H       1  UNL1        0.1438
     41 H          -7.5002   16.9231   -6.2022 H       1  UNL1        0.1438
     42 H          -2.0710   13.4274   -3.9833 H       1  UNL1        0.2101
@<TRIPOS>BOND
     1     1     2    1
     2     1     3    1
     3     1     4    1
     4     1     8    1
     5     5     6    1
     6     5     7    1
     7     5     8    1
     8     5     9    1
     9     9    10    1
    10    10    11    1
    11    11    12    1
    12    11    13    1
    13    12    21    1
    14    13    14    1
    15    13    19    1
    16    14    15    1
    17    15    16    1
    18    15    17    1
    19    15    18    1
    20    19    20    1
    21    19    21    1
    22    21    22    1
    23    22    23   ar
    24    22    31   ar
    25    23    24   ar
    26    24    25   ar
    27    25    26   ar
    28    25    31   ar
    29    26    27    1
    30    26    28   ar
    31    28    29   ar
    32    29    30   ar
    33    30    31   ar
    34    32    10    1
    35    33    10    1
    36    11    34    1
    37    13    35    1
    38    19    36    1
    39    21    37    1
    40    38    23    1
    41    39    29    1
    42    40    27    1
    43    41    27    1
    44    42    20    1
@<TRIPOS>SUBSTRUCTURE
     1 UNL1        1 TEMP              0 ****  ****    0 ROOT

########## Name:	7	572471
@<TRIPOS>MOLECULE
af2_protein.mol27	
 42 44 1 0 0
SMALL
GASTEIGER


@<TRIPOS>ATOM
      1 P          -7.0176    8.1743    2.4703 P.3     1  UNL1        0.0544
      2 O          -7.6635    8.2897    3.7934 O.co2   1  UNL1       -0.6615
      3 O          -7.9704    8.1141    1.3104 O.co2   1  UNL1       -0.6615
      4 O          -5.9558    7.1428    2.4119 O.co2   1  UNL1       -0.6615
      5 P          -5.5833   10.5080    0.9355 P.3     1  UNL1        0.2491
      6 O          -6.6276   10.3942   -0.1254 O.co2   1  UNL1       -0.6337
      7 O          -4.1828   10.1383    0.5949 O.co2   1  UNL1       -0.6337
      8 O          -6.2331    9.6041    2.2461 O.3     1  UNL1       -0.0930
      9 O          -5.6070   12.0514    1.4532 O.3     1  UNL1       -0.2057
     10 C          -5.5601   13.1258    0.5352 C.3     1  UNL1        0.1232
     11 C          -4.3144   12.9118   -0.2737 C.3     1  UNL1        0.1214
     12 O          -4.7524   12.3796   -1.5283 O.3     1  UNL1       -0.3453
     13 C          -3.5559   14.2301   -0.5883 C.3     1  UNL1        0.1593
     14 O          -2.1251   13.9626   -0.6452 O.3     1  UNL1       -0.2421
     15 P          -1.2833   13.4108    0.7345 P.3     1  UNL1       -0.0004
     16 O          -0.1180   14.3298    0.7308 O.co2   1  UNL1       -0.6646
     17 O          -2.2651   13.6400    1.8250 O.co2   1  UNL1       -0.6646
     18 O          -1.0025   11.9615    0.5009 O.co2   1  UNL1       -0.6646
     19 C          -4.1131   14.5639   -1.9668 C.3     1  UNL1        0.1329
     20 O          -3.2313   15.4622   -2.6763 O.3     1  UNL1       -0.3845
     21 C          -4.0673   13.1266   -2.5219 C.3     1  UNL1        0.1668
     22 N          -4.8287   12.8670   -3.7644 N.ar    1  UNL1       -0.2855
     23 C          -4.2240   12.5006   -4.9408 C.ar    1  UNL1        0.1004
     24 N          -5.0491   12.3248   -5.9300 N.ar    1  UNL1       -0.2306
     25 C          -6.3431   12.5962   -5.3812 C.ar    1  UNL1        0.1473
     26 C          -7.6817   12.5608   -5.9631 C.ar    1  UNL1        0.1472
     27 N          -7.8955   12.3300   -7.2730 N.pl3   1  UNL1       -0.3413
     28 N          -8.7255   12.8460   -5.1407 N.ar    1  UNL1       -0.2188
     29 C          -8.4528   13.1596   -3.8656 C.ar    1  UNL1        0.1205
     30 N          -7.2745   13.2416   -3.2013 N.ar    1  UNL1       -0.2159
     31 C          -6.2208   12.9334   -4.0376 C.ar    1  UNL1        0.1674
     32 H          -6.4389   13.1135   -0.1095 H       1  UNL1        0.0631
     33 H          -5.5012   14.0734    1.0704 H       1  UNL1        0.0631
     34 H          -3.6535   12.2048    0.2278 H       1  UNL1        0.0650
     35 H          -3.7891   15.0093    0.1373 H       1  UNL1        0.0694
     36 H          -5.1314   14.9488   -1.9134 H       1  UNL1        0.0667
     37 H          -3.0374   12.7837   -2.6213 H       1  UNL1        0.0866
     38 H          -3.1562   12.3695   -5.0362 H       1  UNL1        0.1030
     39 H          -9.3215   13.3857   -3.2651 H       1  UNL1        0.1048
     40 H          -7.7878   11.3975   -7.6459 H       1  UNL1        0.1438
     41 H          -8.1634   13.0895   -7.8824 H       1  UNL1        0.1438
     42 H          -3.3139   15.3125   -3.6209 H       1  UNL1        0.2101
@<TRIPOS>BOND
     1     1     2    1
     2     1     3    1
     3     1     4    1
     4     1     8    1
     5     5     6    1
     6     5     7    1
     7     5     8    1
     8     5     9    1
     9     9    10    1
    10    10    11    1
    11    11    12    1
    12    11    13    1
    13    12    21    1
    14    13    14    1
    15    13    19    1
    16    14    15    1
    17    15    16    1
    18    15    17    1
    19    15    18    1
    20    19    20    1
    21    19    21    1
    22    21    22    1
    23    22    23   ar
    24    22    31   ar
    25    23    24   ar
    26    24    25   ar
    27    25    26   ar
    28    25    31   ar
    29    26    27    1
    30    26    28   ar
    31    28    29   ar
    32    29    30   ar
    33    30    31   ar
    34    32    10    1
    35    33    10    1
    36    11    34    1
    37    13    35    1
    38    19    36    1
    39    21    37    1
    40    38    23    1
    41    39    29    1
    42    40    27    1
    43    41    27    1
    44    42    20    1
@<TRIPOS>SUBSTRUCTURE
     1 UNL1        1 TEMP              0 ****  ****    0 ROOT

########## Name:	8	572471
@<TRIPOS>MOLECULE
af2_protein.mol28	
 42 44 1 0 0
SMALL
GASTEIGER


@<TRIPOS>ATOM
      1 P          -7.7813   17.9744   -2.6732 P.3     1  UNL1        0.0544
      2 O          -7.9077   18.8556   -3.8516 O.co2   1  UNL1       -0.6615
      3 O          -8.8886   16.9708   -2.5190 O.co2   1  UNL1       -0.6615
      4 O          -7.4644   18.6961   -1.4188 O.co2   1  UNL1       -0.6615
      5 P          -5.7984   15.5536   -2.4152 P.3     1  UNL1        0.2491
      6 O          -6.9826   14.6478   -2.3357 O.co2   1  UNL1       -0.6337
      7 O          -4.9351   15.6997   -1.2119 O.co2   1  UNL1       -0.6337
      8 O          -6.4588   17.0406   -2.9715 O.3     1  UNL1       -0.0930
      9 O          -4.8851   15.0240   -3.6545 O.3     1  UNL1       -0.2057
     10 C          -4.5271   13.6603   -3.7614 C.3     1  UNL1        0.1232
     11 C          -3.8301   13.3237   -2.4759 C.3     1  UNL1        0.1214
     12 O          -4.7862   12.6009   -1.6932 O.3     1  UNL1       -0.3453
     13 C          -2.6098   12.3828   -2.6704 C.3     1  UNL1        0.1593
     14 O          -1.5957   12.6939   -1.6719 O.3     1  UNL1       -0.2421
     15 P          -0.8393   14.2248   -1.6418 P.3     1  UNL1       -0.0004
     16 O           0.5863   13.8246   -1.5409 O.co2   1  UNL1       -0.6646
     17 O          -1.2405   14.8091   -2.9469 O.co2   1  UNL1       -0.6646
     18 O          -1.4208   14.9555   -0.4748 O.co2   1  UNL1       -0.6646
     19 C          -3.2466   11.0232   -2.4091 C.3     1  UNL1        0.1329
     20 O          -2.2449   10.0431   -2.0576 O.3     1  UNL1       -0.3845
     21 C          -4.0965   11.4625   -1.2005 C.3     1  UNL1        0.1668
     22 N          -5.1723   10.5406   -0.7715 N.ar    1  UNL1       -0.2855
     23 C          -5.1718    9.9207    0.4531 C.ar    1  UNL1        0.1004
     24 N          -6.1907    9.1384    0.6529 N.ar    1  UNL1       -0.2306
     25 C          -6.9644    9.2296   -0.5481 C.ar    1  UNL1        0.1473
     26 C          -8.2247    8.6125   -0.9515 C.ar    1  UNL1        0.1472
     27 N          -8.8562    7.6947   -0.1940 N.pl3   1  UNL1       -0.3413
     28 N          -8.7167    8.9440   -2.1743 N.ar    1  UNL1       -0.2188
     29 C          -8.0032    9.7925   -2.9291 C.ar    1  UNL1        0.1205
     30 N          -6.8284   10.4244   -2.6905 N.ar    1  UNL1       -0.2159
     31 C          -6.3439   10.0971   -1.4404 C.ar    1  UNL1        0.1674
     32 H          -5.4165   13.0423   -3.8849 H       1  UNL1        0.0631
     33 H          -3.8504   13.5157   -4.6036 H       1  UNL1        0.0631
     34 H          -3.5278   14.2344   -1.9587 H       1  UNL1        0.0650
     35 H          -2.2096   12.4498   -3.6819 H       1  UNL1        0.0694
     36 H          -3.8643   10.6944   -3.2448 H       1  UNL1        0.0667
     37 H          -3.4595   11.7314   -0.3578 H       1  UNL1        0.0866
     38 H          -4.3931   10.0699    1.1865 H       1  UNL1        0.1030
     39 H          -8.4401   10.0094   -3.8927 H       1  UNL1        0.1048
     40 H          -9.3472    7.9802    0.6411 H       1  UNL1        0.1438
     41 H          -8.8384    6.7208   -0.4612 H       1  UNL1        0.1438
     42 H          -2.6332    9.3807   -1.4813 H       1  UNL1        0.2101
@<TRIPOS>BOND
     1     1     2    1
     2     1     3    1
     3     1     4    1
     4     1     8    1
     5     5     6    1
     6     5     7    1
     7     5     8    1
     8     5     9    1
     9     9    10    1
    10    10    11    1
    11    11    12    1
    12    11    13    1
    13    12    21    1
    14    13    14    1
    15    13    19    1
    16    14    15    1
    17    15    16    1
    18    15    17    1
    19    15    18    1
    20    19    20    1
    21    19    21    1
    22    21    22    1
    23    22    23   ar
    24    22    31   ar
    25    23    24   ar
    26    24    25   ar
    27    25    26   ar
    28    25    31   ar
    29    26    27    1
    30    26    28   ar
    31    28    29   ar
    32    29    30   ar
    33    30    31   ar
    34    32    10    1
    35    33    10    1
    36    11    34    1
    37    13    35    1
    38    19    36    1
    39    21    37    1
    40    38    23    1
    41    39    29    1
    42    40    27    1
    43    41    27    1
    44    42    20    1
@<TRIPOS>SUBSTRUCTURE
     1 UNL1        1 TEMP              0 ****  ****    0 ROOT

########## Name:	9	572471
@<TRIPOS>MOLECULE
af2_protein.mol29	
 42 44 1 0 0
SMALL
GASTEIGER


@<TRIPOS>ATOM
      1 P          -3.3435    8.9619    3.1773 P.3     1  UNL1        0.0544
      2 O          -3.4332    9.1607    4.6379 O.co2   1  UNL1       -0.6615
      3 O          -4.5449    8.3053    2.5588 O.co2   1  UNL1       -0.6615
      4 O          -2.0588    8.3733    2.7323 O.co2   1  UNL1       -0.6615
      5 P          -3.6833   11.2087    1.0104 P.3     1  UNL1        0.2491
      6 O          -4.9018   10.4957    0.5245 O.co2   1  UNL1       -0.6337
      7 O          -2.4943   11.2705    0.1179 O.co2   1  UNL1       -0.6337
      8 O          -3.3623   10.4766    2.5329 O.3     1  UNL1       -0.0930
      9 O          -4.1433   12.7268    1.3769 O.3     1  UNL1       -0.2057
     10 C          -4.8889   13.5011    0.4583 C.3     1  UNL1        0.1232
     11 C          -4.0677   13.5401   -0.7971 C.3     1  UNL1        0.1214
     12 O          -4.6826   12.6080   -1.6928 O.3     1  UNL1       -0.3453
     13 C          -4.0961   14.9231   -1.5033 C.3     1  UNL1        0.1593
     14 O          -2.8177   15.1557   -2.1619 O.3     1  UNL1       -0.2421
     15 P          -1.3751   15.2702   -1.2551 P.3     1  UNL1       -0.0004
     16 O          -0.7849   16.5033   -1.8327 O.co2   1  UNL1       -0.6646
     17 O          -1.8778   15.4023    0.1362 O.co2   1  UNL1       -0.6646
     18 O          -0.6337   13.9932   -1.4860 O.co2   1  UNL1       -0.6646
     19 C          -5.2120   14.7080   -2.5185 C.3     1  UNL1        0.1329
     20 O          -5.1130   15.6574   -3.6032 O.3     1  UNL1       -0.3845
     21 C          -4.7912   13.2850   -2.9356 C.3     1  UNL1        0.1668
     22 N          -5.7825   12.4929   -3.6979 N.ar    1  UNL1       -0.2855
     23 C          -5.5690   12.0867   -4.9914 C.ar    1  UNL1        0.1004
     24 N          -6.5529   11.4094   -5.5047 N.ar    1  UNL1       -0.2306
     25 C          -7.5351   11.3442   -4.4653 C.ar    1  UNL1        0.1473
     26 C          -8.8513   10.7157   -4.3985 C.ar    1  UNL1        0.1472
     27 N          -9.4243   10.1211   -5.4630 N.pl3   1  UNL1       -0.3413
     28 N          -9.5289   10.8137   -3.2244 N.ar    1  UNL1       -0.2188
     29 C          -8.9540   11.4955   -2.2228 C.ar    1  UNL1        0.1205
     30 N          -7.7594   12.1310   -2.1487 N.ar    1  UNL1       -0.2159
     31 C          -7.0695   12.0122   -3.3380 C.ar    1  UNL1        0.1674
     32 H          -5.8557   13.0360    0.2659 H       1  UNL1        0.0631
     33 H          -5.0289   14.5101    0.8460 H       1  UNL1        0.0631
     34 H          -3.0402   13.2428   -0.5874 H       1  UNL1        0.0650
     35 H          -4.3386   15.7244   -0.8054 H       1  UNL1        0.0694
     36 H          -6.1969   14.7224   -2.0518 H       1  UNL1        0.0667
     37 H          -3.8312   13.3018   -3.4515 H       1  UNL1        0.0866
     38 H          -4.6630   12.3101   -5.5352 H       1  UNL1        0.1030
     39 H          -9.5446   11.5468   -1.3201 H       1  UNL1        0.1048
     40 H          -9.0912    9.2215   -5.7791 H       1  UNL1        0.1438
     41 H         -10.1869   10.5750   -5.9451 H       1  UNL1        0.1438
     42 H          -5.4736   15.2683   -4.4034 H       1  UNL1        0.2101
@<TRIPOS>BOND
     1     1     2    1
     2     1     3    1
     3     1     4    1
     4     1     8    1
     5     5     6    1
     6     5     7    1
     7     5     8    1
     8     5     9    1
     9     9    10    1
    10    10    11    1
    11    11    12    1
    12    11    13    1
    13    12    21    1
    14    13    14    1
    15    13    19    1
    16    14    15    1
    17    15    16    1
    18    15    17    1
    19    15    18    1
    20    19    20    1
    21    19    21    1
    22    21    22    1
    23    22    23   ar
    24    22    31   ar
    25    23    24   ar
    26    24    25   ar
    27    25    26   ar
    28    25    31   ar
    29    26    27    1
    30    26    28   ar
    31    28    29   ar
    32    29    30   ar
    33    30    31   ar
    34    32    10    1
    35    33    10    1
    36    11    34    1
    37    13    35    1
    38    19    36    1
    39    21    37    1
    40    38    23    1
    41    39    29    1
    42    40    27    1
    43    41    27    1
    44    42    20    1
@<TRIPOS>SUBSTRUCTURE
     1 UNL1        1 TEMP              0 ****  ****    0 ROOT

########## Name:	10	572471
@<TRIPOS>MOLECULE
af2_protein.mol210	
 42 44 1 0 0
SMALL
GASTEIGER


@<TRIPOS>ATOM
      1 P         -10.7872   15.1120   -2.7001 P.3     1  UNL1        0.0544
      2 O         -11.9926   15.2244   -1.8544 O.co2   1  UNL1       -0.6615
      3 O          -9.7853   16.2158   -2.5140 O.co2   1  UNL1       -0.6615
      4 O         -11.0806   14.8194   -4.1225 O.co2   1  UNL1       -0.6615
      5 P          -8.4080   13.1195   -2.2222 P.3     1  UNL1        0.2491
      6 O          -7.5223   14.2995   -1.9943 O.co2   1  UNL1       -0.6337
      7 O          -8.1710   12.2764   -3.4253 O.co2   1  UNL1       -0.6337
      8 O          -9.9941   13.7795   -2.1475 O.3     1  UNL1       -0.0930
      9 O          -8.2929   12.1834   -0.8951 O.3     1  UNL1       -0.2057
     10 C          -7.0312   11.8159   -0.3733 C.3     1  UNL1        0.1232
     11 C          -6.3098   11.1377   -1.5009 C.3     1  UNL1        0.1214
     12 O          -5.3781   12.1020   -2.0020 O.3     1  UNL1       -0.3453
     13 C          -5.4775    9.9090   -1.0428 C.3     1  UNL1        0.1593
     14 O          -5.4613    8.9129   -2.1056 O.3     1  UNL1       -0.2421
     15 P          -6.9063    8.1658   -2.6257 P.3     1  UNL1       -0.0004
     16 O          -6.4954    6.7398   -2.6207 O.co2   1  UNL1       -0.6646
     17 O          -7.8692    8.5495   -1.5621 O.co2   1  UNL1       -0.6646
     18 O          -7.2353    8.7702   -3.9525 O.co2   1  UNL1       -0.6646
     19 C          -4.1041   10.5421   -0.8550 C.3     1  UNL1        0.1329
     20 O          -3.0637    9.5405   -0.8996 O.3     1  UNL1       -0.3845
     21 C          -4.1430   11.4137   -2.1258 C.3     1  UNL1        0.1668
     22 N          -3.1327   12.4909   -2.2267 N.ar    1  UNL1       -0.2855
     23 C          -2.1610   12.5065   -3.1958 C.ar    1  UNL1        0.1004
     24 N          -1.3550   13.5240   -3.1236 N.ar    1  UNL1       -0.2306
     25 C          -1.8168   14.2788   -1.9984 C.ar    1  UNL1        0.1473
     26 C          -1.3562   15.5289   -1.4009 C.ar    1  UNL1        0.1472
     27 N          -0.2472   16.1671   -1.8226 N.pl3   1  UNL1       -0.3413
     28 N          -2.0532   16.0031   -0.3349 N.ar    1  UNL1       -0.2188
     29 C          -3.0955   15.2825    0.1046 C.ar    1  UNL1        0.1205
     30 N          -3.6216   14.1154   -0.3395 N.ar    1  UNL1       -0.2159
     31 C          -2.9202   13.6491   -1.4327 C.ar    1  UNL1        0.1674
     32 H          -6.4824   12.6996   -0.0477 H       1  UNL1        0.0631
     33 H          -7.1575   11.1250    0.4601 H       1  UNL1        0.0631
     34 H          -7.0133   10.8490   -2.2819 H       1  UNL1        0.0650
     35 H          -5.8576    9.4930   -0.1099 H       1  UNL1        0.0694
     36 H          -4.0528   11.1443    0.0520 H       1  UNL1        0.0667
     37 H          -4.1353   10.7919   -3.0210 H       1  UNL1        0.0866
     38 H          -2.0737   11.7405   -3.9523 H       1  UNL1        0.1030
     39 H          -3.6026   15.7051    0.9594 H       1  UNL1        0.1048
     40 H          -0.2571   16.6731   -2.6966 H       1  UNL1        0.1438
     41 H           0.5942   16.1395   -1.2647 H       1  UNL1        0.1438
     42 H          -2.2541    9.9342   -1.2332 H       1  UNL1        0.2101
@<TRIPOS>BOND
     1     1     2    1
     2     1     3    1
     3     1     4    1
     4     1     8    1
     5     5     6    1
     6     5     7    1
     7     5     8    1
     8     5     9    1
     9     9    10    1
    10    10    11    1
    11    11    12    1
    12    11    13    1
    13    12    21    1
    14    13    14    1
    15    13    19    1
    16    14    15    1
    17    15    16    1
    18    15    17    1
    19    15    18    1
    20    19    20    1
    21    19    21    1
    22    21    22    1
    23    22    23   ar
    24    22    31   ar
    25    23    24   ar
    26    24    25   ar
    27    25    26   ar
    28    25    31   ar
    29    26    27    1
    30    26    28   ar
    31    28    29   ar
    32    29    30   ar
    33    30    31   ar
    34    32    10    1
    35    33    10    1
    36    11    34    1
    37    13    35    1
    38    19    36    1
    39    21    37    1
    40    38    23    1
    41    39    29    1
    42    40    27    1
    43    41    27    1
    44    42    20    1
@<TRIPOS>SUBSTRUCTURE
     1 UNL1        1 TEMP              0 ****  ****    0 ROOT

########## Name:	11	572471
@<TRIPOS>MOLECULE
af2_protein.mol211	
 42 44 1 0 0
SMALL
GASTEIGER


@<TRIPOS>ATOM
      1 P          -7.8778   13.2982    3.7655 P.3     1  UNL1        0.0544
      2 O          -9.2559   13.6494    4.1637 O.co2   1  UNL1       -0.6615
      3 O          -7.6254   11.8253    3.6122 O.co2   1  UNL1       -0.6615
      4 O          -6.8330   13.9940    4.5523 O.co2   1  UNL1       -0.6615
      5 P          -6.6795   13.6183    0.8809 P.3     1  UNL1        0.2491
      6 O          -6.5362   12.1333    0.8225 O.co2   1  UNL1       -0.6337
      7 O          -5.4456   14.4495    0.9073 O.co2   1  UNL1       -0.6337
      8 O          -7.7103   13.8757    2.2330 O.3     1  UNL1       -0.0930
      9 O          -7.5776   14.0536   -0.4053 O.3     1  UNL1       -0.2057
     10 C          -7.2562   13.5951   -1.7037 C.3     1  UNL1        0.1232
     11 C          -5.8382   14.0231   -1.9437 C.3     1  UNL1        0.1214
     12 O          -5.0415   12.8478   -1.7624 O.3     1  UNL1       -0.3453
     13 C          -5.5853   14.5143   -3.3952 C.3     1  UNL1        0.1593
     14 O          -4.5682   15.5570   -3.3824 O.3     1  UNL1       -0.2421
     15 P          -4.8408   17.0342   -2.5697 P.3     1  UNL1       -0.0004
     16 O          -4.4228   18.0028   -3.6135 O.co2   1  UNL1       -0.6646
     17 O          -6.3002   16.9888   -2.2980 O.co2   1  UNL1       -0.6646
     18 O          -4.0163   16.9843   -1.3241 O.co2   1  UNL1       -0.6646
     19 C          -5.0642   13.2391   -4.0468 C.3     1  UNL1        0.1329
     20 O          -4.3142   13.5407   -5.2444 O.3     1  UNL1       -0.3845
     21 C          -4.1613   12.8057   -2.8750 C.3     1  UNL1        0.1668
     22 N          -3.6649   11.4113   -2.8960 N.ar    1  UNL1       -0.2855
     23 C          -2.3325   11.1011   -3.0070 C.ar    1  UNL1        0.1004
     24 N          -2.0834    9.8251   -3.0191 N.ar    1  UNL1       -0.2306
     25 C          -3.3661    9.1998   -2.9054 C.ar    1  UNL1        0.1473
     26 C          -3.7715    7.7984   -2.8447 C.ar    1  UNL1        0.1472
     27 N          -2.8972    6.7848   -2.9979 N.pl3   1  UNL1       -0.3413
     28 N          -5.0977    7.5399   -2.6985 N.ar    1  UNL1       -0.2188
     29 C          -5.9383    8.5835   -2.6428 C.ar    1  UNL1        0.1205
     30 N          -5.7065    9.9175   -2.6972 N.ar    1  UNL1       -0.2159
     31 C          -4.3566   10.1728   -2.8276 C.ar    1  UNL1        0.1674
     32 H          -7.3396   12.5095   -1.7549 H       1  UNL1        0.0631
     33 H          -7.9164   14.0567   -2.4379 H       1  UNL1        0.0631
     34 H          -5.5478   14.7919   -1.2276 H       1  UNL1        0.0650
     35 H          -6.5054   14.8582   -3.8677 H       1  UNL1        0.0694
     36 H          -5.8623   12.5210   -4.2347 H       1  UNL1        0.0667
     37 H          -3.3374   13.5070   -2.7425 H       1  UNL1        0.0866
     38 H          -1.5588   11.8513   -3.0781 H       1  UNL1        0.1030
     39 H          -6.9788    8.3143   -2.5364 H       1  UNL1        0.1048
     40 H          -2.2541    6.5556   -2.2537 H       1  UNL1        0.1438
     41 H          -2.8849    6.2543   -3.8572 H       1  UNL1        0.1438
     42 H          -3.6451   12.8662   -5.3817 H       1  UNL1        0.2101
@<TRIPOS>BOND
     1     1     2    1
     2     1     3    1
     3     1     4    1
     4     1     8    1
     5     5     6    1
     6     5     7    1
     7     5     8    1
     8     5     9    1
     9     9    10    1
    10    10    11    1
    11    11    12    1
    12    11    13    1
    13    12    21    1
    14    13    14    1
    15    13    19    1
    16    14    15    1
    17    15    16    1
    18    15    17    1
    19    15    18    1
    20    19    20    1
    21    19    21    1
    22    21    22    1
    23    22    23   ar
    24    22    31   ar
    25    23    24   ar
    26    24    25   ar
    27    25    26   ar
    28    25    31   ar
    29    26    27    1
    30    26    28   ar
    31    28    29   ar
    32    29    30   ar
    33    30    31   ar
    34    32    10    1
    35    33    10    1
    36    11    34    1
    37    13    35    1
    38    19    36    1
    39    21    37    1
    40    38    23    1
    41    39    29    1
    42    40    27    1
    43    41    27    1
    44    42    20    1
@<TRIPOS>SUBSTRUCTURE
     1 UNL1        1 TEMP              0 ****  ****    0 ROOT

########## Name:	12	572471
@<TRIPOS>MOLECULE
af2_protein.mol212	
 42 44 1 0 0
SMALL
GASTEIGER


@<TRIPOS>ATOM
      1 P           1.0281   13.2037   -1.4945 P.3     1  UNL1        0.0544
      2 O           2.0230   13.7107   -2.4610 O.co2   1  UNL1       -0.6615
      3 O           0.3608   14.2648   -0.6665 O.co2   1  UNL1       -0.6615
      4 O           1.5045   12.0498   -0.6966 O.co2   1  UNL1       -0.6615
      5 P          -1.8607   12.2040   -2.2116 P.3     1  UNL1        0.2491
      6 O          -2.4059   13.3391   -1.4094 O.co2   1  UNL1       -0.6337
      7 O          -2.0807   10.8172   -1.7190 O.co2   1  UNL1       -0.6337
      8 O          -0.2010   12.6065   -2.4124 O.3     1  UNL1       -0.0930
      9 O          -2.4961   12.3371   -3.7045 O.3     1  UNL1       -0.2057
     10 C          -3.8878   12.5060   -3.8887 C.3     1  UNL1        0.1232
     11 C          -4.5312   11.3399   -3.1974 C.3     1  UNL1        0.1214
     12 O          -5.0350   11.8519   -1.9592 O.3     1  UNL1       -0.3453
     13 C          -5.7492   10.7663   -3.9718 C.3     1  UNL1        0.1593
     14 O          -5.8328    9.3297   -3.7454 O.3     1  UNL1       -0.2421
     15 P          -4.5827    8.2886   -4.2649 P.3     1  UNL1       -0.0004
     16 O          -5.3705    7.2362   -4.9537 O.co2   1  UNL1       -0.6646
     17 O          -3.7827    9.1650   -5.1579 O.co2   1  UNL1       -0.6646
     18 O          -3.8399    7.8806   -3.0338 O.co2   1  UNL1       -0.6646
     19 C          -6.8979   11.5026   -3.2932 C.3     1  UNL1        0.1329
     20 O          -8.1474   10.8048   -3.4922 O.3     1  UNL1       -0.3845
     21 C          -6.3634   11.3631   -1.8541 C.3     1  UNL1        0.1668
     22 N          -6.9889   12.2227   -0.8241 N.ar    1  UNL1       -0.2855
     23 C          -7.7038   11.7135    0.2310 C.ar    1  UNL1        0.1004
     24 N          -8.1889   12.6175    1.0296 N.ar    1  UNL1       -0.2306
     25 C          -7.7671   13.8658    0.4701 C.ar    1  UNL1        0.1473
     26 C          -7.9670   15.2481    0.8955 C.ar    1  UNL1        0.1472
     27 N          -8.7448   15.5769    1.9453 N.pl3   1  UNL1       -0.3413
     28 N          -7.3916   16.2210    0.1408 N.ar    1  UNL1       -0.2188
     29 C          -6.7032   15.8466   -0.9475 C.ar    1  UNL1        0.1205
     30 N          -6.4490   14.6188   -1.4616 N.ar    1  UNL1       -0.2159
     31 C          -7.0210   13.6352   -0.6806 C.ar    1  UNL1        0.1674
     32 H          -4.2194   13.4433   -3.4417 H       1  UNL1        0.0631
     33 H          -4.1294   12.4916   -4.9514 H       1  UNL1        0.0631
     34 H          -3.7965   10.5562   -3.0125 H       1  UNL1        0.0650
     35 H          -5.6950   11.0017   -5.0347 H       1  UNL1        0.0694
     36 H          -6.9574   12.5445   -3.6076 H       1  UNL1        0.0667
     37 H          -6.3672   10.3192   -1.5403 H       1  UNL1        0.0866
     38 H          -7.8505   10.6545    0.3845 H       1  UNL1        0.1030
     39 H          -6.2785   16.6641   -1.5111 H       1  UNL1        0.1048
     40 H          -8.4192   15.4108    2.8868 H       1  UNL1        0.1438
     41 H          -9.6536   15.9896    1.7908 H       1  UNL1        0.1438
     42 H          -8.7303   10.9731   -2.7482 H       1  UNL1        0.2101
@<TRIPOS>BOND
     1     1     2    1
     2     1     3    1
     3     1     4    1
     4     1     8    1
     5     5     6    1
     6     5     7    1
     7     5     8    1
     8     5     9    1
     9     9    10    1
    10    10    11    1
    11    11    12    1
    12    11    13    1
    13    12    21    1
    14    13    14    1
    15    13    19    1
    16    14    15    1
    17    15    16    1
    18    15    17    1
    19    15    18    1
    20    19    20    1
    21    19    21    1
    22    21    22    1
    23    22    23   ar
    24    22    31   ar
    25    23    24   ar
    26    24    25   ar
    27    25    26   ar
    28    25    31   ar
    29    26    27    1
    30    26    28   ar
    31    28    29   ar
    32    29    30   ar
    33    30    31   ar
    34    32    10    1
    35    33    10    1
    36    11    34    1
    37    13    35    1
    38    19    36    1
    39    21    37    1
    40    38    23    1
    41    39    29    1
    42    40    27    1
    43    41    27    1
    44    42    20    1
@<TRIPOS>SUBSTRUCTURE
     1 UNL1        1 TEMP              0 ****  ****    0 ROOT

########## Name:	13	572471
@<TRIPOS>MOLECULE
af2_protein.mol213	
 42 44 1 0 0
SMALL
GASTEIGER


@<TRIPOS>ATOM
      1 P          -4.5849   17.9393    1.4293 P.3     1  UNL1        0.0544
      2 O          -4.0451   18.2289    2.7731 O.co2   1  UNL1       -0.6615
      3 O          -3.5579   17.9138    0.3331 O.co2   1  UNL1       -0.6615
      4 O          -5.7899   18.7300    1.0864 O.co2   1  UNL1       -0.6615
      5 P          -5.4869   15.1132    0.4006 P.3     1  UNL1        0.2491
      6 O          -4.3871   15.1768   -0.6072 O.co2   1  UNL1       -0.6337
      7 O          -6.8941   15.1476   -0.0821 O.co2   1  UNL1       -0.6337
      8 O          -5.1065   16.3796    1.4999 O.3     1  UNL1       -0.0930
      9 O          -5.2596   13.7476    1.2572 O.3     1  UNL1       -0.2057
     10 C          -5.0536   12.5088    0.6073 C.3     1  UNL1        0.1232
     11 C          -6.2431   12.3195   -0.2877 C.3     1  UNL1        0.1214
     12 O          -5.7902   12.6360   -1.6082 O.3     1  UNL1       -0.3453
     13 C          -6.7494   10.8518   -0.3292 C.3     1  UNL1        0.1593
     14 O          -8.1944   10.8441   -0.5140 O.3     1  UNL1       -0.2421
     15 P          -9.2297   11.5244    0.6616 P.3     1  UNL1       -0.0004
     16 O         -10.2270   10.4357    0.8119 O.co2   1  UNL1       -0.6646
     17 O          -8.3214   11.7135    1.8213 O.co2   1  UNL1       -0.6646
     18 O          -9.7191   12.8159    0.0904 O.co2   1  UNL1       -0.6646
     19 C          -6.0291   10.3309   -1.5670 C.3     1  UNL1        0.1329
     20 O          -6.6903    9.1593   -2.0941 O.3     1  UNL1       -0.3845
     21 C          -6.2579   11.5828   -2.4368 C.3     1  UNL1        0.1668
     22 N          -5.4440   11.6971   -3.6679 N.ar    1  UNL1       -0.2855
     23 C          -5.9963   11.6876   -4.9244 C.ar    1  UNL1        0.1004
     24 N          -5.1282   11.7876   -5.8870 N.ar    1  UNL1       -0.2306
     25 C          -3.8596   11.8740   -5.2295 C.ar    1  UNL1        0.1473
     26 C          -2.4990   12.0179   -5.7395 C.ar    1  UNL1        0.1472
     27 N          -2.2132   11.9936   -7.0558 N.pl3   1  UNL1       -0.3413
     28 N          -1.4977   12.1062   -4.8248 N.ar    1  UNL1       -0.2188
     29 C          -1.8251   12.0331   -3.5263 C.ar    1  UNL1        0.1205
     30 N          -3.0276   11.8906   -2.9179 N.ar    1  UNL1       -0.2159
     31 C          -4.0412   11.8197   -3.8519 C.ar    1  UNL1        0.1674
     32 H          -4.1360   12.5359    0.0195 H       1  UNL1        0.0631
     33 H          -5.0050   11.7044    1.3411 H       1  UNL1        0.0631
     34 H          -7.0500   12.9905    0.0071 H       1  UNL1        0.0650
     35 H          -6.4572   10.3018    0.5653 H       1  UNL1        0.0694
     36 H          -4.9706   10.1524   -1.3785 H       1  UNL1        0.0667
     37 H          -7.3171   11.7089   -2.6609 H       1  UNL1        0.0866
     38 H          -7.0591   11.6045   -5.0981 H       1  UNL1        0.1030
     39 H          -0.9864   12.0992   -2.8493 H       1  UNL1        0.1048
     40 H          -2.4371   12.7892   -7.6362 H       1  UNL1        0.1438
     41 H          -1.7750   11.1795   -7.4623 H       1  UNL1        0.1438
     42 H          -6.5518    9.1129   -3.0429 H       1  UNL1        0.2101
@<TRIPOS>BOND
     1     1     2    1
     2     1     3    1
     3     1     4    1
     4     1     8    1
     5     5     6    1
     6     5     7    1
     7     5     8    1
     8     5     9    1
     9     9    10    1
    10    10    11    1
    11    11    12    1
    12    11    13    1
    13    12    21    1
    14    13    14    1
    15    13    19    1
    16    14    15    1
    17    15    16    1
    18    15    17    1
    19    15    18    1
    20    19    20    1
    21    19    21    1
    22    21    22    1
    23    22    23   ar
    24    22    31   ar
    25    23    24   ar
    26    24    25   ar
    27    25    26   ar
    28    25    31   ar
    29    26    27    1
    30    26    28   ar
    31    28    29   ar
    32    29    30   ar
    33    30    31   ar
    34    32    10    1
    35    33    10    1
    36    11    34    1
    37    13    35    1
    38    19    36    1
    39    21    37    1
    40    38    23    1
    41    39    29    1
    42    40    27    1
    43    41    27    1
    44    42    20    1
@<TRIPOS>SUBSTRUCTURE
     1 UNL1        1 TEMP              0 ****  ****    0 ROOT

########## Name:	14	572471
@<TRIPOS>MOLECULE
af2_protein.mol214	
 42 44 1 0 0
SMALL
GASTEIGER


@<TRIPOS>ATOM
      1 P          -6.8104   11.5279   -7.6903 P.3     1  UNL1        0.0544
      2 O          -7.9632   11.9594   -8.5063 O.co2   1  UNL1       -0.6615
      3 O          -5.6833   12.5190   -7.6235 O.co2   1  UNL1       -0.6615
      4 O          -6.3603   10.1456   -7.9759 O.co2   1  UNL1       -0.6615
      5 P          -6.7162   11.4851   -4.5521 P.3     1  UNL1        0.2491
      6 O          -5.6417   12.5200   -4.6132 O.co2   1  UNL1       -0.6337
      7 O          -6.3670   10.1288   -4.0493 O.co2   1  UNL1       -0.6337
      8 O          -7.3696   11.4810   -6.1427 O.3     1  UNL1       -0.0930
      9 O          -7.9054   12.0980   -3.6244 O.3     1  UNL1       -0.2057
     10 C          -7.6224   12.6549   -2.3559 C.3     1  UNL1        0.1232
     11 C          -6.9251   11.5722   -1.5858 C.3     1  UNL1        0.1214
     12 O          -5.5354   11.9149   -1.6051 O.3     1  UNL1       -0.3453
     13 C          -7.3497   11.5133   -0.0930 C.3     1  UNL1        0.1593
     14 O          -7.2999   10.1329    0.3696 O.3     1  UNL1       -0.2421
     15 P          -8.3158    8.9439   -0.3166 P.3     1  UNL1       -0.0004
     16 O          -8.8570    8.3050    0.9087 O.co2   1  UNL1       -0.6646
     17 O          -9.2900    9.7573   -1.0878 O.co2   1  UNL1       -0.6646
     18 O          -7.4428    8.1013   -1.1894 O.co2   1  UNL1       -0.6646
     19 C          -6.2559   12.3547    0.5535 C.3     1  UNL1        0.1329
     20 O          -6.1455   12.0621    1.9642 O.3     1  UNL1       -0.3845
     21 C          -5.0868   11.7734   -0.2659 C.3     1  UNL1        0.1668
     22 N          -3.8093   12.5201   -0.2274 N.ar    1  UNL1       -0.2855
     23 C          -2.6607   11.9953    0.3101 C.ar    1  UNL1        0.1004
     24 N          -1.6388   12.7978    0.2665 N.ar    1  UNL1       -0.2306
     25 C          -2.1322   13.9864   -0.3605 C.ar    1  UNL1        0.1473
     26 C          -1.4873   15.2471   -0.7162 C.ar    1  UNL1        0.1472
     27 N          -0.2136   15.5288   -0.3793 N.pl3   1  UNL1       -0.3413
     28 N          -2.2486   16.1791   -1.3478 N.ar    1  UNL1       -0.2188
     29 C          -3.5367   15.8859   -1.5789 C.ar    1  UNL1        0.1205
     30 N          -4.2615   14.7760   -1.2978 N.ar    1  UNL1       -0.2159
     31 C          -3.4780   13.8273   -0.6728 C.ar    1  UNL1        0.1674
     32 H          -6.9749   13.5257   -2.4589 H       1  UNL1        0.0631
     33 H          -8.5490   12.9342   -1.8544 H       1  UNL1        0.0631
     34 H          -7.0836   10.6051   -2.0632 H       1  UNL1        0.0650
     35 H          -8.3356   11.9518    0.0606 H       1  UNL1        0.0694
     36 H          -6.3958   13.4194    0.3669 H       1  UNL1        0.0667
     37 H          -4.9280   10.7233   -0.0207 H       1  UNL1        0.0866
     38 H          -2.6101   11.0024    0.7323 H       1  UNL1        0.1030
     39 H          -4.0916   16.6689   -2.0742 H       1  UNL1        0.1048
     40 H           0.5489   15.0841   -0.8701 H       1  UNL1        0.1438
     41 H          -0.0213   16.1846    0.3643 H       1  UNL1        0.1438
     42 H          -5.2415   12.2089    2.2520 H       1  UNL1        0.2101
@<TRIPOS>BOND
     1     1     2    1
     2     1     3    1
     3     1     4    1
     4     1     8    1
     5     5     6    1
     6     5     7    1
     7     5     8    1
     8     5     9    1
     9     9    10    1
    10    10    11    1
    11    11    12    1
    12    11    13    1
    13    12    21    1
    14    13    14    1
    15    13    19    1
    16    14    15    1
    17    15    16    1
    18    15    17    1
    19    15    18    1
    20    19    20    1
    21    19    21    1
    22    21    22    1
    23    22    23   ar
    24    22    31   ar
    25    23    24   ar
    26    24    25   ar
    27    25    26   ar
    28    25    31   ar
    29    26    27    1
    30    26    28   ar
    31    28    29   ar
    32    29    30   ar
    33    30    31   ar
    34    32    10    1
    35    33    10    1
    36    11    34    1
    37    13    35    1
    38    19    36    1
    39    21    37    1
    40    38    23    1
    41    39    29    1
    42    40    27    1
    43    41    27    1
    44    42    20    1
@<TRIPOS>SUBSTRUCTURE
     1 UNL1        1 TEMP              0 ****  ****    0 ROOT

########## Name:	15	572471
@<TRIPOS>MOLECULE
af2_protein.mol215	
 42 44 1 0 0
SMALL
GASTEIGER


@<TRIPOS>ATOM
      1 P          -1.1805    8.2417   -3.8668 P.3     1  UNL1        0.0544
      2 O          -0.0432    8.4222   -4.7914 O.co2   1  UNL1       -0.6615
      3 O          -0.8431    8.4254   -2.4144 O.co2   1  UNL1       -0.6615
      4 O          -1.9802    7.0236   -4.1342 O.co2   1  UNL1       -0.6615
      5 P          -3.4951   10.3120   -3.4028 P.3     1  UNL1        0.2491
      6 O          -3.0247   10.4568   -1.9933 O.co2   1  UNL1       -0.6337
      7 O          -4.8235    9.6875   -3.6467 O.co2   1  UNL1       -0.6337
      8 O          -2.1985    9.4959   -4.1837 O.3     1  UNL1       -0.0930
      9 O          -3.4895   11.8039   -4.0546 O.3     1  UNL1       -0.2057
     10 C          -4.1072   12.8886   -3.3904 C.3     1  UNL1        0.1232
     11 C          -5.5307   12.4688   -3.1690 C.3     1  UNL1        0.1214
     12 O          -5.6150   12.0925   -1.7905 O.3     1  UNL1       -0.3453
     13 C          -6.5482   13.6232   -3.3796 C.3     1  UNL1        0.1593
     14 O          -7.7940   13.0798   -3.9037 O.3     1  UNL1       -0.2421
     15 P          -7.8392   12.3089   -5.4270 P.3     1  UNL1       -0.0004
     16 O          -9.0149   12.9773   -6.0380 O.co2   1  UNL1       -0.6646
     17 O          -6.5264   12.6782   -6.0149 O.co2   1  UNL1       -0.6646
     18 O          -7.9610   10.8451   -5.1512 O.co2   1  UNL1       -0.6646
     19 C          -6.7192   14.1240   -1.9506 C.3     1  UNL1        0.1329
     20 O          -7.9537   14.8609   -1.8062 O.3     1  UNL1       -0.3845
     21 C          -6.7777   12.7333   -1.2884 C.3     1  UNL1        0.1668
     22 N          -6.6142   12.6875    0.1821 N.ar    1  UNL1       -0.2855
     23 C          -7.6105   12.2627    1.0251 C.ar    1  UNL1        0.1004
     24 N          -7.2921   12.3000    2.2851 N.ar    1  UNL1       -0.2306
     25 C          -5.9500   12.7975    2.3098 C.ar    1  UNL1        0.1473
     26 C          -5.0202   13.0554    3.4056 C.ar    1  UNL1        0.1472
     27 N          -5.3746   12.9321    4.6996 N.pl3   1  UNL1       -0.3413
     28 N          -3.7802   13.5042    3.0771 N.ar    1  UNL1       -0.2188
     29 C          -3.5064   13.6985    1.7786 C.ar    1  UNL1        0.1205
     30 N          -4.2655   13.5142    0.6713 N.ar    1  UNL1       -0.2159
     31 C          -5.5168   13.0416    1.0111 C.ar    1  UNL1        0.1674
     32 H          -3.6148   13.0808   -2.4371 H       1  UNL1        0.0631
     33 H          -4.0724   13.7800   -4.0166 H       1  UNL1        0.0631
     34 H          -5.7803   11.6223   -3.8088 H       1  UNL1        0.0650
     35 H          -6.1447   14.3990   -4.0302 H       1  UNL1        0.0694
     36 H          -5.8576   14.7007   -1.6142 H       1  UNL1        0.0667
     37 H          -7.6764   12.1976   -1.5939 H       1  UNL1        0.0866
     38 H          -8.5745   11.9267    0.6727 H       1  UNL1        0.1030
     39 H          -2.5097   14.0648    1.5818 H       1  UNL1        0.1048
     40 H          -5.4870   12.0150    5.1074 H       1  UNL1        0.1438
     41 H          -5.5280   13.7570    5.2619 H       1  UNL1        0.1438
     42 H          -8.2750   14.7742   -0.9057 H       1  UNL1        0.2101
@<TRIPOS>BOND
     1     1     2    1
     2     1     3    1
     3     1     4    1
     4     1     8    1
     5     5     6    1
     6     5     7    1
     7     5     8    1
     8     5     9    1
     9     9    10    1
    10    10    11    1
    11    11    12    1
    12    11    13    1
    13    12    21    1
    14    13    14    1
    15    13    19    1
    16    14    15    1
    17    15    16    1
    18    15    17    1
    19    15    18    1
    20    19    20    1
    21    19    21    1
    22    21    22    1
    23    22    23   ar
    24    22    31   ar
    25    23    24   ar
    26    24    25   ar
    27    25    26   ar
    28    25    31   ar
    29    26    27    1
    30    26    28   ar
    31    28    29   ar
    32    29    30   ar
    33    30    31   ar
    34    32    10    1
    35    33    10    1
    36    11    34    1
    37    13    35    1
    38    19    36    1
    39    21    37    1
    40    38    23    1
    41    39    29    1
    42    40    27    1
    43    41    27    1
    44    42    20    1
@<TRIPOS>SUBSTRUCTURE
     1 UNL1        1 TEMP              0 ****  ****    0 ROOT

########## Name:	16	572471
@<TRIPOS>MOLECULE
af2_protein.mol216	
 42 44 1 0 0
SMALL
GASTEIGER


@<TRIPOS>ATOM
      1 P          -1.2617    9.2645   -5.3070 P.3     1  UNL1        0.0544
      2 O          -0.5365    9.6155   -6.5447 O.co2   1  UNL1       -0.6615
      3 O          -0.5487    9.6320   -4.0368 O.co2   1  UNL1       -0.6615
      4 O          -1.7986    7.8837   -5.3004 O.co2   1  UNL1       -0.6615
      5 P          -3.7381   10.8087   -4.1486 P.3     1  UNL1        0.2491
      6 O          -2.9063   11.1641   -2.9608 O.co2   1  UNL1       -0.6337
      7 O          -4.8940    9.8914   -3.9564 O.co2   1  UNL1       -0.6337
      8 O          -2.5902   10.2366   -5.2940 O.3     1  UNL1       -0.0930
      9 O          -4.2792   12.2091   -4.7782 O.3     1  UNL1       -0.2057
     10 C          -4.8985   13.1816   -3.9596 C.3     1  UNL1        0.1232
     11 C          -6.0474   12.4797   -3.2972 C.3     1  UNL1        0.1214
     12 O          -5.6161   12.2045   -1.9603 O.3     1  UNL1       -0.3453
     13 C          -7.3196   13.3632   -3.1829 C.3     1  UNL1        0.1593
     14 O          -8.5038   12.5207   -3.2830 O.3     1  UNL1       -0.2421
     15 P          -8.8322   11.6404   -4.7091 P.3     1  UNL1       -0.0004
     16 O         -10.2600   11.9849   -4.9216 O.co2   1  UNL1       -0.6646
     17 O          -7.8859   12.2400   -5.6841 O.co2   1  UNL1       -0.6646
     18 O          -8.5200   10.2119   -4.3998 O.co2   1  UNL1       -0.6646
     19 C          -7.1569   13.9262   -1.7761 C.3     1  UNL1        0.1329
     20 O          -8.4237   14.3843   -1.2538 O.3     1  UNL1       -0.3845
     21 C          -6.6849   12.6133   -1.1206 C.3     1  UNL1        0.1668
     22 N          -6.0735   12.7211    0.2232 N.ar    1  UNL1       -0.2855
     23 C          -6.6367   12.1569    1.3404 C.ar    1  UNL1        0.1004
     24 N          -5.9660   12.3627    2.4350 N.ar    1  UNL1       -0.2306
     25 C          -4.8350   13.1420    2.0313 C.ar    1  UNL1        0.1473
     26 C          -3.7014   13.6830    2.7756 C.ar    1  UNL1        0.1472
     27 N          -3.6041   13.5882    4.1160 N.pl3   1  UNL1       -0.3413
     28 N          -2.7614   14.3647    2.0693 N.ar    1  UNL1       -0.2188
     29 C          -2.9510   14.5105    0.7496 C.ar    1  UNL1        0.1205
     30 N          -3.9477   14.0775   -0.0600 N.ar    1  UNL1       -0.2159
     31 C          -4.8891   13.3711    0.6607 C.ar    1  UNL1        0.1674
     32 H          -4.1970   13.5518   -3.2120 H       1  UNL1        0.0631
     33 H          -5.2652   14.0066   -4.5703 H       1  UNL1        0.0631
     34 H          -6.2768   11.5511   -3.8200 H       1  UNL1        0.0650
     35 H          -7.3265   14.1544   -3.9325 H       1  UNL1        0.0694
     36 H          -6.3926   14.7021   -1.7328 H       1  UNL1        0.0667
     37 H          -7.4836   11.8716   -1.1232 H       1  UNL1        0.0866
     38 H          -7.5564   11.5914    1.3127 H       1  UNL1        0.1030
     39 H          -2.1762   15.0691    0.2457 H       1  UNL1        0.1048
     40 H          -3.3699   12.7040    4.5442 H       1  UNL1        0.1438
     41 H          -3.7656   14.4014    4.6928 H       1  UNL1        0.1438
     42 H          -8.4248   14.3012   -0.2974 H       1  UNL1        0.2101
@<TRIPOS>BOND
     1     1     2    1
     2     1     3    1
     3     1     4    1
     4     1     8    1
     5     5     6    1
     6     5     7    1
     7     5     8    1
     8     5     9    1
     9     9    10    1
    10    10    11    1
    11    11    12    1
    12    11    13    1
    13    12    21    1
    14    13    14    1
    15    13    19    1
    16    14    15    1
    17    15    16    1
    18    15    17    1
    19    15    18    1
    20    19    20    1
    21    19    21    1
    22    21    22    1
    23    22    23   ar
    24    22    31   ar
    25    23    24   ar
    26    24    25   ar
    27    25    26   ar
    28    25    31   ar
    29    26    27    1
    30    26    28   ar
    31    28    29   ar
    32    29    30   ar
    33    30    31   ar
    34    32    10    1
    35    33    10    1
    36    11    34    1
    37    13    35    1
    38    19    36    1
    39    21    37    1
    40    38    23    1
    41    39    29    1
    42    40    27    1
    43    41    27    1
    44    42    20    1
@<TRIPOS>SUBSTRUCTURE
     1 UNL1        1 TEMP              0 ****  ****    0 ROOT

########## Name:	17	572471
@<TRIPOS>MOLECULE
af2_protein.mol217	
 42 44 1 0 0
SMALL
GASTEIGER


@<TRIPOS>ATOM
      1 P          -6.1627   15.2185   -7.2999 P.3     1  UNL1        0.0544
      2 O          -6.1573   14.6779   -8.6742 O.co2   1  UNL1       -0.6615
      3 O          -7.5016   15.1875   -6.6191 O.co2   1  UNL1       -0.6615
      4 O          -5.4668   16.5196   -7.1671 O.co2   1  UNL1       -0.6615
      5 P          -5.0420   13.7489   -4.7616 P.3     1  UNL1        0.2491
      6 O          -6.4318   13.7223   -4.2166 O.co2   1  UNL1       -0.6337
      7 O          -4.0244   14.5852   -4.0693 O.co2   1  UNL1       -0.6337
      8 O          -5.2607   14.1624   -6.4163 O.3     1  UNL1       -0.0930
      9 O          -4.5207   12.2069   -4.7921 O.3     1  UNL1       -0.2057
     10 C          -4.6351   11.3793   -3.6513 C.3     1  UNL1        0.1232
     11 C          -3.9168   12.1053   -2.5519 C.3     1  UNL1        0.1214
     12 O          -4.9399   12.6904   -1.7395 O.3     1  UNL1       -0.3453
     13 C          -3.0990   11.1614   -1.6287 C.3     1  UNL1        0.1593
     14 O          -1.9146   11.8611   -1.1494 O.3     1  UNL1       -0.2421
     15 P          -0.7116   12.3914   -2.2395 P.3     1  UNL1       -0.0004
     16 O           0.5111   11.8908   -1.5637 O.co2   1  UNL1       -0.6646
     17 O          -1.0759   11.6824   -3.4926 O.co2   1  UNL1       -0.6646
     18 O          -0.8672   13.8742   -2.3448 O.co2   1  UNL1       -0.6646
     19 C          -4.0960   10.9221   -0.5013 C.3     1  UNL1        0.1329
     20 O          -3.4227   10.4788    0.6978 O.3     1  UNL1       -0.3845
     21 C          -4.5910   12.3784   -0.3996 C.3     1  UNL1        0.1668
     22 N          -5.8373   12.6072    0.3656 N.ar    1  UNL1       -0.2855
     23 C          -5.8711   13.3439    1.5231 C.ar    1  UNL1        0.1004
     24 N          -7.0502   13.4299    2.0639 N.ar    1  UNL1       -0.2306
     25 C          -7.9076   12.6814    1.1955 C.ar    1  UNL1        0.1473
     26 C          -9.3410   12.4063    1.2320 C.ar    1  UNL1        0.1472
     27 N         -10.1254   12.7883    2.2586 N.pl3   1  UNL1       -0.3413
     28 N          -9.8602   11.6733    0.2121 N.ar    1  UNL1       -0.2188
     29 C          -9.0208   11.2381   -0.7391 C.ar    1  UNL1        0.1205
     30 N          -7.6849   11.4058   -0.8924 N.ar    1  UNL1       -0.2159
     31 C          -7.1676   12.1658    0.1370 C.ar    1  UNL1        0.1674
     32 H          -5.6835   11.2349   -3.3901 H       1  UNL1        0.0631
     33 H          -4.1594   10.4165   -3.8379 H       1  UNL1        0.0631
     34 H          -3.2729   12.8806   -2.9671 H       1  UNL1        0.0650
     35 H          -2.8376   10.2327   -2.1359 H       1  UNL1        0.0694
     36 H          -4.8924   10.2399   -0.7986 H       1  UNL1        0.0667
     37 H          -3.7947   13.0330   -0.0454 H       1  UNL1        0.0866
     38 H          -4.9948   13.8114    1.9475 H       1  UNL1        0.1030
     39 H          -9.4903   10.6535   -1.5163 H       1  UNL1        0.1048
     40 H         -10.3829   13.7593    2.3635 H       1  UNL1        0.1438
     41 H         -10.4558   12.1037    2.9236 H       1  UNL1        0.1438
     42 H          -3.9215   10.7605    1.4681 H       1  UNL1        0.2101
@<TRIPOS>BOND
     1     1     2    1
     2     1     3    1
     3     1     4    1
     4     1     8    1
     5     5     6    1
     6     5     7    1
     7     5     8    1
     8     5     9    1
     9     9    10    1
    10    10    11    1
    11    11    12    1
    12    11    13    1
    13    12    21    1
    14    13    14    1
    15    13    19    1
    16    14    15    1
    17    15    16    1
    18    15    17    1
    19    15    18    1
    20    19    20    1
    21    19    21    1
    22    21    22    1
    23    22    23   ar
    24    22    31   ar
    25    23    24   ar
    26    24    25   ar
    27    25    26   ar
    28    25    31   ar
    29    26    27    1
    30    26    28   ar
    31    28    29   ar
    32    29    30   ar
    33    30    31   ar
    34    32    10    1
    35    33    10    1
    36    11    34    1
    37    13    35    1
    38    19    36    1
    39    21    37    1
    40    38    23    1
    41    39    29    1
    42    40    27    1
    43    41    27    1
    44    42    20    1
@<TRIPOS>SUBSTRUCTURE
     1 UNL1        1 TEMP              0 ****  ****    0 ROOT

########## Name:	18	572471
@<TRIPOS>MOLECULE
af2_protein.mol218	
 42 44 1 0 0
SMALL
GASTEIGER


@<TRIPOS>ATOM
      1 P          -1.7911    8.0989   -4.6068 P.3     1  UNL1        0.0544
      2 O          -0.9552    8.1187   -5.8241 O.co2   1  UNL1       -0.6615
      3 O          -1.0773    8.5062   -3.3492 O.co2   1  UNL1       -0.6615
      4 O          -2.5926    6.8625   -4.4526 O.co2   1  UNL1       -0.6615
      5 P          -3.9591   10.2413   -3.8528 P.3     1  UNL1        0.2491
      6 O          -3.1277   10.6021   -2.6663 O.co2   1  UNL1       -0.6337
      7 O          -5.2824    9.6004   -3.6233 O.co2   1  UNL1       -0.6337
      8 O          -2.8980    9.2981   -4.8229 O.3     1  UNL1       -0.0930
      9 O          -4.1807   11.6112   -4.7042 O.3     1  UNL1       -0.2057
     10 C          -4.6297   12.7938   -4.0725 C.3     1  UNL1        0.1232
     11 C          -5.9245   12.4297   -3.4071 C.3     1  UNL1        0.1214
     12 O          -5.6176   12.2770   -2.0172 O.3     1  UNL1       -0.3453
     13 C          -6.9985   13.5472   -3.5070 C.3     1  UNL1        0.1593
     14 O          -8.3212   12.9412   -3.5786 O.3     1  UNL1       -0.2421
     15 P          -8.7540   11.9397   -4.8925 P.3     1  UNL1       -0.0004
     16 O         -10.0732   12.5157   -5.2538 O.co2   1  UNL1       -0.6646
     17 O          -7.6639   12.1972   -5.8677 O.co2   1  UNL1       -0.6646
     18 O          -8.7475   10.5392   -4.3706 O.co2   1  UNL1       -0.6646
     19 C          -6.7904   14.2695   -2.1814 C.3     1  UNL1        0.1329
     20 O          -7.9626   15.0331   -1.8201 O.3     1  UNL1       -0.3845
     21 C          -6.6202   13.0016   -1.3213 C.3     1  UNL1        0.1668
     22 N          -6.0610   13.1872    0.0367 N.ar    1  UNL1       -0.2855
     23 C          -6.7754   12.9117    1.1758 C.ar    1  UNL1        0.1004
     24 N          -6.1273   13.1444    2.2786 N.ar    1  UNL1       -0.2306
     25 C          -4.8465   13.6250    1.8570 C.ar    1  UNL1        0.1473
     26 C          -3.6625   14.0430    2.6023 C.ar    1  UNL1        0.1472
     27 N          -3.6468   14.1296    3.9466 N.pl3   1  UNL1       -0.3413
     28 N          -2.5744   14.4208    1.8809 N.ar    1  UNL1       -0.2188
     29 C          -2.6712   14.4043    0.5434 C.ar    1  UNL1        0.1205
     30 N          -3.6966   14.0554   -0.2710 N.ar    1  UNL1       -0.2159
     31 C          -4.7917   13.6560    0.4678 C.ar    1  UNL1        0.1674
     32 H          -3.9030   13.1290   -3.3325 H       1  UNL1        0.0631
     33 H          -4.7963   13.5746   -4.8145 H       1  UNL1        0.0631
     34 H          -6.3107   11.4955   -3.8147 H       1  UNL1        0.0650
     35 H          -6.8134   14.2060   -4.3553 H       1  UNL1        0.0694
     36 H          -5.8893   14.8827   -2.1876 H       1  UNL1        0.0667
     37 H          -7.5499   12.4341   -1.2819 H       1  UNL1        0.0866
     38 H          -7.7874   12.5346    1.1576 H       1  UNL1        0.1030
     39 H          -1.7784   14.7242    0.0266 H       1  UNL1        0.1048
     40 H          -3.6135   13.2898    4.5066 H       1  UNL1        0.1438
     41 H          -3.6686   15.0346    4.3945 H       1  UNL1        0.1438
     42 H          -8.0235   15.0934   -0.8639 H       1  UNL1        0.2101
@<TRIPOS>BOND
     1     1     2    1
     2     1     3    1
     3     1     4    1
     4     1     8    1
     5     5     6    1
     6     5     7    1
     7     5     8    1
     8     5     9    1
     9     9    10    1
    10    10    11    1
    11    11    12    1
    12    11    13    1
    13    12    21    1
    14    13    14    1
    15    13    19    1
    16    14    15    1
    17    15    16    1
    18    15    17    1
    19    15    18    1
    20    19    20    1
    21    19    21    1
    22    21    22    1
    23    22    23   ar
    24    22    31   ar
    25    23    24   ar
    26    24    25   ar
    27    25    26   ar
    28    25    31   ar
    29    26    27    1
    30    26    28   ar
    31    28    29   ar
    32    29    30   ar
    33    30    31   ar
    34    32    10    1
    35    33    10    1
    36    11    34    1
    37    13    35    1
    38    19    36    1
    39    21    37    1
    40    38    23    1
    41    39    29    1
    42    40    27    1
    43    41    27    1
    44    42    20    1
@<TRIPOS>SUBSTRUCTURE
     1 UNL1        1 TEMP              0 ****  ****    0 ROOT

########## Name:	19	572471
@<TRIPOS>MOLECULE
af2_protein.mol219	
 42 44 1 0 0
SMALL
GASTEIGER


@<TRIPOS>ATOM
      1 P          -9.0394    9.0618    1.5900 P.3     1  UNL1        0.0544
      2 O         -10.1262    9.4683    2.5036 O.co2   1  UNL1       -0.6615
      3 O          -9.4584    8.8803    0.1588 O.co2   1  UNL1       -0.6615
      4 O          -8.2118    7.9463    2.1053 O.co2   1  UNL1       -0.6615
      5 P          -6.7787   10.9475    0.4982 P.3     1  UNL1        0.2491
      6 O          -7.3277   10.7393   -0.8745 O.co2   1  UNL1       -0.6337
      7 O          -5.4315   10.4002    0.8140 O.co2   1  UNL1       -0.6337
      8 O          -8.0205   10.3533    1.5286 O.3     1  UNL1       -0.0930
      9 O          -6.7662   12.5544    0.7595 O.3     1  UNL1       -0.2057
     10 C          -6.1989   13.4392   -0.1864 C.3     1  UNL1        0.1232
     11 C          -4.7848   12.9747   -0.3767 C.3     1  UNL1        0.1214
     12 O          -4.7721   12.2681   -1.6216 O.3     1  UNL1       -0.3453
     13 C          -3.7711   14.1431   -0.5161 C.3     1  UNL1        0.1593
     14 O          -2.4920   13.7439    0.0552 O.3     1  UNL1       -0.2421
     15 P          -2.3538   13.3748    1.7169 P.3     1  UNL1       -0.0004
     16 O          -1.1543   14.1713    2.0762 O.co2   1  UNL1       -0.6646
     17 O          -3.6366   13.8811    2.2680 O.co2   1  UNL1       -0.6646
     18 O          -2.2299   11.8880    1.8059 O.co2   1  UNL1       -0.6646
     19 C          -3.6850   14.2736   -2.0320 C.3     1  UNL1        0.1329
     20 O          -2.4692   14.9490   -2.4236 O.3     1  UNL1       -0.3845
     21 C          -3.6465   12.7620   -2.3313 C.3     1  UNL1        0.1668
     22 N          -3.8901   12.3534   -3.7331 N.ar    1  UNL1       -0.2855
     23 C          -2.9368   11.7307   -4.4993 C.ar    1  UNL1        0.1004
     24 N          -3.3245   11.4551   -5.7093 N.ar    1  UNL1       -0.2306
     25 C          -4.6717   11.9338   -5.7808 C.ar    1  UNL1        0.1473
     26 C          -5.6634   11.9139   -6.8523 C.ar    1  UNL1        0.1472
     27 N          -5.3794   11.4729   -8.0932 N.pl3   1  UNL1       -0.3413
     28 N          -6.8888   12.4328   -6.5759 N.ar    1  UNL1       -0.2188
     29 C          -7.0930   12.9435   -5.3527 C.ar    1  UNL1        0.1205
     30 N          -6.2719   13.0379   -4.2787 N.ar    1  UNL1       -0.2159
     31 C          -5.0357   12.4932   -4.5608 C.ar    1  UNL1        0.1674
     32 H          -6.7453   13.3901   -1.1283 H       1  UNL1        0.0631
     33 H          -6.2098   14.4581    0.2004 H       1  UNL1        0.0631
     34 H          -4.4903   12.3127    0.4378 H       1  UNL1        0.0650
     35 H          -4.1474   15.0569   -0.0563 H       1  UNL1        0.0694
     36 H          -4.5706   14.7507   -2.4516 H       1  UNL1        0.0667
     37 H          -2.7260   12.3169   -1.9537 H       1  UNL1        0.0866
     38 H          -1.9509   11.4905   -4.1294 H       1  UNL1        0.1030
     39 H          -8.0816   13.3493   -5.1969 H       1  UNL1        0.1048
     40 H          -5.2787   10.4831   -8.2668 H       1  UNL1        0.1438
     41 H          -5.2670   12.1322   -8.8500 H       1  UNL1        0.1438
     42 H          -2.1969   14.6411   -3.2912 H       1  UNL1        0.2101
@<TRIPOS>BOND
     1     1     2    1
     2     1     3    1
     3     1     4    1
     4     1     8    1
     5     5     6    1
     6     5     7    1
     7     5     8    1
     8     5     9    1
     9     9    10    1
    10    10    11    1
    11    11    12    1
    12    11    13    1
    13    12    21    1
    14    13    14    1
    15    13    19    1
    16    14    15    1
    17    15    16    1
    18    15    17    1
    19    15    18    1
    20    19    20    1
    21    19    21    1
    22    21    22    1
    23    22    23   ar
    24    22    31   ar
    25    23    24   ar
    26    24    25   ar
    27    25    26   ar
    28    25    31   ar
    29    26    27    1
    30    26    28   ar
    31    28    29   ar
    32    29    30   ar
    33    30    31   ar
    34    32    10    1
    35    33    10    1
    36    11    34    1
    37    13    35    1
    38    19    36    1
    39    21    37    1
    40    38    23    1
    41    39    29    1
    42    40    27    1
    43    41    27    1
    44    42    20    1
@<TRIPOS>SUBSTRUCTURE
     1 UNL1        1 TEMP              0 ****  ****    0 ROOT

