########## Name:	0	1663.14  0.61131
@<TRIPOS>MOLECULE
af2_protein.mol20	
 42 44 1 0 0
SMALL
GASTEIGER


@<TRIPOS>ATOM
      1 P          -1.4978    8.6682   -4.8239 P.3     1  UNL1        0.0544
      2 O          -1.4550    8.3936   -6.2743 O.co2   1  UNL1       -0.6615
      3 O          -0.4188    9.5882   -4.3278 O.co2   1  UNL1       -0.6615
      4 O          -1.6631    7.4543   -3.9908 O.co2   1  UNL1       -0.6615
      5 P          -3.5547   10.5446   -3.3723 P.3     1  UNL1        0.2491
      6 O          -2.5893   11.4225   -2.6466 O.co2   1  UNL1       -0.6337
      7 O          -4.3417    9.5550   -2.5877 O.co2   1  UNL1       -0.6337
      8 O          -2.8770    9.5355   -4.5886 O.3     1  UNL1       -0.0930
      9 O          -4.4850   11.6009   -4.1904 O.3     1  UNL1       -0.2057
     10 C          -5.1049   12.6860   -3.5289 C.3     1  UNL1        0.1232
     11 C          -6.4115   12.1540   -3.0175 C.3     1  UNL1        0.1214
     12 O          -6.2174   11.9271   -1.6175 O.3     1  UNL1       -0.3453
     13 C          -7.5783   13.1709   -3.1474 C.3     1  UNL1        0.1593
     14 O          -8.8221   12.4512   -3.3865 O.3     1  UNL1       -0.2421
     15 P          -9.0040   11.4524   -4.7598 P.3     1  UNL1       -0.0004
     16 O         -10.3915   11.7908   -5.1635 O.co2   1  UNL1       -0.6646
     17 O          -7.9416   11.9550   -5.6678 O.co2   1  UNL1       -0.6646
     18 O          -8.7569   10.0536   -4.2950 O.co2   1  UNL1       -0.6646
     19 C          -7.5636   13.8083   -1.7633 C.3     1  UNL1        0.1329
     20 O          -8.8340   14.4302   -1.4679 O.3     1  UNL1       -0.3845
     21 C          -7.3459   12.5011   -0.9759 C.3     1  UNL1        0.1668
     22 N          -6.9327   12.6359    0.4391 N.ar    1  UNL1       -0.2855
     23 C          -7.7158   12.2107    1.4830 C.ar    1  UNL1        0.1004
     24 N          -7.1962   12.4196    2.6563 N.ar    1  UNL1       -0.2306
     25 C          -5.9369   13.0477    2.3934 C.ar    1  UNL1        0.1473
     26 C          -4.8726   13.5173    3.2757 C.ar    1  UNL1        0.1472
     27 N          -4.9868   13.5043    4.6180 N.pl3   1  UNL1       -0.3413
     28 N          -3.7671   14.0478    2.6896 N.ar    1  UNL1       -0.2188
     29 C          -3.7408   14.1224    1.3508 C.ar    1  UNL1        0.1205
     30 N          -4.6487   13.7413    0.4198 N.ar    1  UNL1       -0.2159
     31 C          -5.7605   13.1874    1.0211 C.ar    1  UNL1        0.1674
     32 H          -4.4849   13.0312   -2.7015 H       1  UNL1        0.0631
     33 H          -5.2811   13.5011   -4.2307 H       1  UNL1        0.0631
     34 H          -6.6642   11.2210   -3.5211 H       1  UNL1        0.0650
     35 H          -7.3567   13.8672   -3.9561 H       1  UNL1        0.0694
     36 H          -6.7314   14.5016   -1.6419 H       1  UNL1        0.0667
     37 H          -8.2141   11.8480   -1.0642 H       1  UNL1        0.0866
     38 H          -8.6792   11.7433    1.3421 H       1  UNL1        0.1030
     39 H          -2.8415   14.5618    0.9451 H       1  UNL1        0.1048
     40 H          -4.9204   12.6317    5.1222 H       1  UNL1        0.1438
     41 H          -5.1391   14.3672    5.1202 H       1  UNL1        0.1438
     42 H          -8.9865   14.4128   -0.5203 H       1  UNL1        0.2101
@<TRIPOS>BOND
     1     1     2    1
     2     1     3    1
     3     1     4    1
     4     1     8    1
     5     5     6    1
     6     5     7    1
     7     5     8    1
     8     5     9    1
     9     9    10    1
    10    10    11    1
    11    11    12    1
    12    11    13    1
    13    12    21    1
    14    13    14    1
    15    13    19    1
    16    14    15    1
    17    15    16    1
    18    15    17    1
    19    15    18    1
    20    19    20    1
    21    19    21    1
    22    21    22    1
    23    22    23   ar
    24    22    31   ar
    25    23    24   ar
    26    24    25   ar
    27    25    26   ar
    28    25    31   ar
    29    26    27    1
    30    26    28   ar
    31    28    29   ar
    32    29    30   ar
    33    30    31   ar
    34    32    10    1
    35    33    10    1
    36    11    34    1
    37    13    35    1
    38    19    36    1
    39    21    37    1
    40    38    23    1
    41    39    29    1
    42    40    27    1
    43    41    27    1
    44    42    20    1
@<TRIPOS>SUBSTRUCTURE
     1 UNL1        1 TEMP              0 ****  ****    0 ROOT

########## Name:	1	1635.69  0.637815
@<TRIPOS>MOLECULE
af2_protein.mol21	
 42 44 1 0 0
SMALL
GASTEIGER


@<TRIPOS>ATOM
      1 P          -0.2267    6.3409   -3.6442 P.3     1  UNL1        0.0544
      2 O          -0.3325    5.6851   -4.9632 O.co2   1  UNL1       -0.6615
      3 O           1.1137    6.9543   -3.3546 O.co2   1  UNL1       -0.6615
      4 O          -0.7516    5.5226   -2.5263 O.co2   1  UNL1       -0.6615
      5 P          -1.4721    9.1209   -2.8828 P.3     1  UNL1        0.2491
      6 O          -0.2704    9.7993   -2.3128 O.co2   1  UNL1       -0.6337
      7 O          -2.4940    8.5818   -1.9451 O.co2   1  UNL1       -0.6337
      8 O          -1.2321    7.6419   -3.7265 O.3     1  UNL1       -0.0930
      9 O          -2.5074    9.9603   -3.8178 O.3     1  UNL1       -0.2057
     10 C          -2.9220   11.2622   -3.4538 C.3     1  UNL1        0.1232
     11 C          -4.3010   11.1024   -2.8842 C.3     1  UNL1        0.1214
     12 O          -4.1957   11.4657   -1.5036 O.3     1  UNL1       -0.3453
     13 C          -5.3406   12.0647   -3.5209 C.3     1  UNL1        0.1593
     14 O          -6.6449   11.4166   -3.5499 O.3     1  UNL1       -0.2421
     15 P          -6.8953    9.9968   -4.4655 P.3     1  UNL1       -0.0004
     16 O          -8.0837   10.3902   -5.2625 O.co2   1  UNL1       -0.6646
     17 O          -5.6297    9.8805   -5.2339 O.co2   1  UNL1       -0.6646
     18 O          -7.0791    8.8898   -3.4782 O.co2   1  UNL1       -0.6646
     19 C          -5.3166   13.2183   -2.5254 C.3     1  UNL1        0.1329
     20 O          -6.5217   14.0093   -2.6228 O.3     1  UNL1       -0.3845
     21 C          -5.2807   12.3462   -1.2548 C.3     1  UNL1        0.1668
     22 N          -4.9183   13.0249    0.0098 N.ar    1  UNL1       -0.2855
     23 C          -3.7477   13.7242    0.1659 C.ar    1  UNL1        0.1004
     24 N          -3.5933   14.2447    1.3472 N.ar    1  UNL1       -0.2306
     25 C          -4.7693   13.8672    2.0710 C.ar    1  UNL1        0.1473
     26 C          -5.2132   14.1461    3.4337 C.ar    1  UNL1        0.1472
     27 N          -4.4422   14.7955    4.3274 N.pl3   1  UNL1       -0.3413
     28 N          -6.4253   13.6566    3.8058 N.ar    1  UNL1       -0.2188
     29 C          -7.1146   12.9375    2.9077 C.ar    1  UNL1        0.1205
     30 N          -6.8240   12.5950    1.6292 N.ar    1  UNL1       -0.2159
     31 C          -5.6005   13.1103    1.2525 C.ar    1  UNL1        0.1674
     32 H          -2.3047   11.8688   -2.7910 H       1  UNL1        0.0631
     33 H          -2.9751   11.7213   -4.4409 H       1  UNL1        0.0631
     34 H          -4.6333   10.0687   -2.9798 H       1  UNL1        0.0650
     35 H          -5.0315   12.3873   -4.5151 H       1  UNL1        0.0694
     36 H          -4.4187   13.8275   -2.6281 H       1  UNL1        0.0667
     37 H          -4.6199   12.6580   -2.0636 H       1  UNL1        0.0866
     38 H          -3.0186   13.8327   -0.6236 H       1  UNL1        0.1030
     39 H          -8.0643   12.5678    3.2650 H       1  UNL1        0.1048
     40 H          -4.3049   15.7928    4.2458 H       1  UNL1        0.1438
     41 H          -4.0013   14.2851    5.0792 H       1  UNL1        0.1438
     42 H          -6.7171   14.4020   -1.7689 H       1  UNL1        0.2101
@<TRIPOS>BOND
     1     1     2    1
     2     1     3    1
     3     1     4    1
     4     1     8    1
     5     5     6    1
     6     5     7    1
     7     5     8    1
     8     5     9    1
     9     9    10    1
    10    10    11    1
    11    11    12    1
    12    11    13    1
    13    12    21    1
    14    13    14    1
    15    13    19    1
    16    14    15    1
    17    15    16    1
    18    15    17    1
    19    15    18    1
    20    19    20    1
    21    19    21    1
    22    21    22    1
    23    22    23   ar
    24    22    31   ar
    25    23    24   ar
    26    24    25   ar
    27    25    26   ar
    28    25    31   ar
    29    26    27    1
    30    26    28   ar
    31    28    29   ar
    32    29    30   ar
    33    30    31   ar
    34    32    10    1
    35    33    10    1
    36    11    34    1
    37    13    35    1
    38    19    36    1
    39    21    37    1
    40    38    23    1
    41    39    29    1
    42    40    27    1
    43    41    27    1
    44    42    20    1
@<TRIPOS>SUBSTRUCTURE
     1 UNL1        1 TEMP              0 ****  ****    0 ROOT

########## Name:	2	1614.08  0.639414
@<TRIPOS>MOLECULE
af2_protein.mol22	
 42 44 1 0 0
SMALL
GASTEIGER


@<TRIPOS>ATOM
      1 P          -0.1764    7.6532   -2.3120 P.3     1  UNL1        0.0544
      2 O          -0.2418    6.6595   -3.4025 O.co2   1  UNL1       -0.6615
      3 O           0.9558    8.6341   -2.4244 O.co2   1  UNL1       -0.6615
      4 O          -0.3112    7.0650   -0.9589 O.co2   1  UNL1       -0.6615
      5 P          -2.2260    9.5622   -3.7309 P.3     1  UNL1        0.2491
      6 O          -1.9544    8.9325   -5.0570 O.co2   1  UNL1       -0.6337
      7 O          -1.5639   10.8559   -3.4110 O.co2   1  UNL1       -0.6337
      8 O          -1.5152    8.5921   -2.5019 O.3     1  UNL1       -0.0930
      9 O          -3.2395   10.5547   -2.9319 O.3     1  UNL1       -0.2057
     10 C          -4.0824   11.4483   -3.6320 C.3     1  UNL1        0.1232
     11 C          -5.4069   11.3887   -2.9291 C.3     1  UNL1        0.1214
     12 O          -5.1293   11.6677   -1.5528 O.3     1  UNL1       -0.3453
     13 C          -6.4049   12.4761   -3.4126 C.3     1  UNL1        0.1593
     14 O          -7.7630   11.9553   -3.3331 O.3     1  UNL1       -0.2421
     15 P          -8.3855   10.9460   -4.5622 P.3     1  UNL1       -0.0004
     16 O          -8.2193   11.8229   -5.7478 O.co2   1  UNL1       -0.6646
     17 O          -7.4743    9.7744   -4.5104 O.co2   1  UNL1       -0.6646
     18 O          -9.7853   10.6114   -4.1593 O.co2   1  UNL1       -0.6646
     19 C          -6.1684   13.5686   -2.3769 C.3     1  UNL1        0.1329
     20 O          -7.2935   14.4730   -2.3145 O.3     1  UNL1       -0.3845
     21 C          -6.0922   12.6317   -1.1552 C.3     1  UNL1        0.1668
     22 N          -5.5406   13.2064    0.0925 N.ar    1  UNL1       -0.2855
     23 C          -4.3158   13.8235    0.1454 C.ar    1  UNL1        0.1004
     24 N          -3.9906   14.2582    1.3267 N.ar    1  UNL1       -0.2306
     25 C          -5.0967   13.9064    2.1645 C.ar    1  UNL1        0.1473
     26 C          -5.3594   14.1245    3.5841 C.ar    1  UNL1        0.1472
     27 N          -4.4481   14.6692    4.4134 N.pl3   1  UNL1       -0.3413
     28 N          -6.5498   13.6855    4.0714 N.ar    1  UNL1       -0.2188
     29 C          -7.3853   13.0669    3.2241 C.ar    1  UNL1        0.1205
     30 N          -7.2691   12.7892    1.9028 N.ar    1  UNL1       -0.2159
     31 C          -6.0662   13.2535    1.4110 C.ar    1  UNL1        0.1674
     32 H          -3.3456   11.9590   -3.0120 H       1  UNL1        0.0631
     33 H          -4.1881   11.9615   -4.5877 H       1  UNL1        0.0631
     34 H          -5.8472   10.3970   -3.0334 H       1  UNL1        0.0650
     35 H          -6.2651   13.0965   -4.2978 H       1  UNL1        0.0694
     36 H          -5.2296   14.0957   -2.5465 H       1  UNL1        0.0667
     37 H          -5.5107   12.9541   -2.0189 H       1  UNL1        0.0866
     38 H          -3.6781   13.9380   -0.7187 H       1  UNL1        0.1030
     39 H          -8.3095   12.7326    3.6718 H       1  UNL1        0.1048
     40 H          -4.2551   15.6597    4.3715 H       1  UNL1        0.1438
     41 H          -3.9576   14.0869    5.0771 H       1  UNL1        0.1438
     42 H          -7.3632   14.8370   -1.4289 H       1  UNL1        0.2101
@<TRIPOS>BOND
     1     1     2    1
     2     1     3    1
     3     1     4    1
     4     1     8    1
     5     5     6    1
     6     5     7    1
     7     5     8    1
     8     5     9    1
     9     9    10    1
    10    10    11    1
    11    11    12    1
    12    11    13    1
    13    12    21    1
    14    13    14    1
    15    13    19    1
    16    14    15    1
    17    15    16    1
    18    15    17    1
    19    15    18    1
    20    19    20    1
    21    19    21    1
    22    21    22    1
    23    22    23   ar
    24    22    31   ar
    25    23    24   ar
    26    24    25   ar
    27    25    26   ar
    28    25    31   ar
    29    26    27    1
    30    26    28   ar
    31    28    29   ar
    32    29    30   ar
    33    30    31   ar
    34    32    10    1
    35    33    10    1
    36    11    34    1
    37    13    35    1
    38    19    36    1
    39    21    37    1
    40    38    23    1
    41    39    29    1
    42    40    27    1
    43    41    27    1
    44    42    20    1
@<TRIPOS>SUBSTRUCTURE
     1 UNL1        1 TEMP              0 ****  ****    0 ROOT

########## Name:	3	1581.23  0.647607
@<TRIPOS>MOLECULE
af2_protein.mol23	
 42 44 1 0 0
SMALL
GASTEIGER


@<TRIPOS>ATOM
      1 P          -1.6762    6.4490   -5.1844 P.3     1  UNL1        0.0544
      2 O          -2.5729    5.7918   -6.1565 O.co2   1  UNL1       -0.6615
      3 O          -0.6351    7.3427   -5.7962 O.co2   1  UNL1       -0.6615
      4 O          -1.1312    5.5299   -4.1582 O.co2   1  UNL1       -0.6615
      5 P          -2.4385    8.7968   -3.2438 P.3     1  UNL1        0.2491
      6 O          -1.2664    9.6213   -3.6626 O.co2   1  UNL1       -0.6337
      7 O          -2.4491    8.2253   -1.8698 O.co2   1  UNL1       -0.6337
      8 O          -2.6351    7.4955   -4.3505 O.3     1  UNL1       -0.0930
      9 O          -3.7672    9.7139   -3.4524 O.3     1  UNL1       -0.2057
     10 C          -3.8337   11.0254   -2.9280 C.3     1  UNL1        0.1232
     11 C          -5.2732   11.2424   -2.5641 C.3     1  UNL1        0.1214
     12 O          -5.3144   11.2571   -1.1333 O.3     1  UNL1       -0.3453
     13 C          -5.8241   12.6141   -3.0407 C.3     1  UNL1        0.1593
     14 O          -7.2371   12.4799   -3.3686 O.3     1  UNL1       -0.2421
     15 P          -7.7471   11.4537   -4.6349 P.3     1  UNL1       -0.0004
     16 O          -9.1326   11.9430   -4.8436 O.co2   1  UNL1       -0.6646
     17 O          -6.7906   11.7827   -5.7223 O.co2   1  UNL1       -0.6646
     18 O          -7.5925   10.0561   -4.1284 O.co2   1  UNL1       -0.6646
     19 C          -5.6231   13.4589   -1.7885 C.3     1  UNL1        0.1329
     20 O          -6.4807   14.6216   -1.8071 O.3     1  UNL1       -0.3845
     21 C          -6.0955   12.3895   -0.7838 C.3     1  UNL1        0.1668
     22 N          -5.7771   12.6273    0.6421 N.ar    1  UNL1       -0.2855
     23 C          -6.5084   12.0786    1.6658 C.ar    1  UNL1        0.1004
     24 N          -6.0894   12.4051    2.8524 N.ar    1  UNL1       -0.2306
     25 C          -4.9636   13.2588    2.6220 C.ar    1  UNL1        0.1473
     26 C          -4.0479   13.9406    3.5322 C.ar    1  UNL1        0.1472
     27 N          -4.2152   13.9305    4.8690 N.pl3   1  UNL1       -0.3413
     28 N          -3.0403   14.6631    2.9756 N.ar    1  UNL1       -0.2188
     29 C          -2.9711   14.7167    1.6373 C.ar    1  UNL1        0.1205
     30 N          -3.7483   14.1510    0.6822 N.ar    1  UNL1       -0.2159
     31 C          -4.7584   13.4047    1.2543 C.ar    1  UNL1        0.1674
     32 H          -3.1901   11.2312   -2.0727 H       1  UNL1        0.0631
     33 H          -3.5586   11.6651   -3.7665 H       1  UNL1        0.0631
     34 H          -5.8890   10.4311   -2.9526 H       1  UNL1        0.0650
     35 H          -5.2529   13.0044   -3.8830 H       1  UNL1        0.0694
     36 H          -4.5768   13.7254   -1.6394 H       1  UNL1        0.0667
     37 H          -6.8179   11.5800   -0.8884 H       1  UNL1        0.0866
     38 H          -7.3575   11.4321    1.5000 H       1  UNL1        0.1030
     39 H          -2.1561   15.3134    1.2553 H       1  UNL1        0.1048
     40 H          -4.0047   13.0964    5.3981 H       1  UNL1        0.1438
     41 H          -4.5514   14.7572    5.3420 H       1  UNL1        0.1438
     42 H          -6.6964   14.8750   -0.9066 H       1  UNL1        0.2101
@<TRIPOS>BOND
     1     1     2    1
     2     1     3    1
     3     1     4    1
     4     1     8    1
     5     5     6    1
     6     5     7    1
     7     5     8    1
     8     5     9    1
     9     9    10    1
    10    10    11    1
    11    11    12    1
    12    11    13    1
    13    12    21    1
    14    13    14    1
    15    13    19    1
    16    14    15    1
    17    15    16    1
    18    15    17    1
    19    15    18    1
    20    19    20    1
    21    19    21    1
    22    21    22    1
    23    22    23   ar
    24    22    31   ar
    25    23    24   ar
    26    24    25   ar
    27    25    26   ar
    28    25    31   ar
    29    26    27    1
    30    26    28   ar
    31    28    29   ar
    32    29    30   ar
    33    30    31   ar
    34    32    10    1
    35    33    10    1
    36    11    34    1
    37    13    35    1
    38    19    36    1
    39    21    37    1
    40    38    23    1
    41    39    29    1
    42    40    27    1
    43    41    27    1
    44    42    20    1
@<TRIPOS>SUBSTRUCTURE
     1 UNL1        1 TEMP              0 ****  ****    0 ROOT

########## Name:	4	1640.89  0.633537
@<TRIPOS>MOLECULE
af2_protein.mol24	
 42 44 1 0 0
SMALL
GASTEIGER


@<TRIPOS>ATOM
      1 P          -1.5230    6.1959   -4.6561 P.3     1  UNL1        0.0544
      2 O          -2.6502    5.3287   -5.0543 O.co2   1  UNL1       -0.6615
      3 O          -0.8087    6.8602   -5.7986 O.co2   1  UNL1       -0.6615
      4 O          -0.6061    5.5706   -3.6746 O.co2   1  UNL1       -0.6615
      5 P          -1.7869    9.0593   -3.3953 P.3     1  UNL1        0.2491
      6 O          -0.8845    9.9823   -4.1455 O.co2   1  UNL1       -0.6337
      7 O          -1.3606    8.5889   -2.0494 O.co2   1  UNL1       -0.6337
      8 O          -2.2108    7.4564   -3.8512 O.3     1  UNL1       -0.0930
      9 O          -3.1960    9.8747   -3.4138 O.3     1  UNL1       -0.2057
     10 C          -3.2628   11.2184   -2.9789 C.3     1  UNL1        0.1232
     11 C          -4.6846   11.4340   -2.5502 C.3     1  UNL1        0.1214
     12 O          -4.6234   11.7882   -1.1646 O.3     1  UNL1       -0.3453
     13 C          -5.3713   12.6183   -3.2838 C.3     1  UNL1        0.1593
     14 O          -6.7900   12.3295   -3.4453 O.3     1  UNL1       -0.2421
     15 P          -7.3105   11.0030   -4.3866 P.3     1  UNL1       -0.0004
     16 O          -8.0539   11.7047   -5.4624 O.co2   1  UNL1       -0.6646
     17 O          -6.0283   10.3819   -4.8064 O.co2   1  UNL1       -0.6646
     18 O          -8.1074   10.1291   -3.4729 O.co2   1  UNL1       -0.6646
     19 C          -5.1453   13.7481   -2.2865 C.3     1  UNL1        0.1329
     20 O          -6.0880   14.8219   -2.5007 O.3     1  UNL1       -0.3845
     21 C          -5.4611   12.9250   -1.0220 C.3     1  UNL1        0.1668
     22 N          -5.0596   13.5146    0.2750 N.ar    1  UNL1       -0.2855
     23 C          -3.9118   14.2510    0.4301 C.ar    1  UNL1        0.1004
     24 N          -3.7158   14.6805    1.6415 N.ar    1  UNL1       -0.2306
     25 C          -4.8351   14.1931    2.3891 C.ar    1  UNL1        0.1473
     26 C          -5.2166   14.3404    3.7908 C.ar    1  UNL1        0.1472
     27 N          -4.4261   14.9494    4.6959 N.pl3   1  UNL1       -0.3413
     28 N          -6.3861   13.7684    4.1809 N.ar    1  UNL1       -0.2188
     29 C          -7.0925   13.0941    3.2616 C.ar    1  UNL1        0.1205
     30 N          -6.8570   12.8697    1.9461 N.ar    1  UNL1       -0.2159
     31 C          -5.6773   13.4683    1.5530 C.ar    1  UNL1        0.1674
     32 H          -2.5766   11.6591   -2.2555 H       1  UNL1        0.0631
     33 H          -3.0985   11.6536   -3.9645 H       1  UNL1        0.0631
     34 H          -5.2632   10.5197   -2.6824 H       1  UNL1        0.0650
     35 H          -4.8938   12.8276   -4.2410 H       1  UNL1        0.0694
     36 H          -4.1143   14.1016   -2.2968 H       1  UNL1        0.0667
     37 H          -4.8577   13.3307   -1.8340 H       1  UNL1        0.0866
     38 H          -3.2310   14.4557   -0.3830 H       1  UNL1        0.1030
     39 H          -8.0060   12.6543    3.6338 H       1  UNL1        0.1048
     40 H          -4.3341   15.9552    4.6907 H       1  UNL1        0.1438
     41 H          -3.9252   14.4001    5.3796 H       1  UNL1        0.1438
     42 H          -6.2568   15.2707   -1.6689 H       1  UNL1        0.2101
@<TRIPOS>BOND
     1     1     2    1
     2     1     3    1
     3     1     4    1
     4     1     8    1
     5     5     6    1
     6     5     7    1
     7     5     8    1
     8     5     9    1
     9     9    10    1
    10    10    11    1
    11    11    12    1
    12    11    13    1
    13    12    21    1
    14    13    14    1
    15    13    19    1
    16    14    15    1
    17    15    16    1
    18    15    17    1
    19    15    18    1
    20    19    20    1
    21    19    21    1
    22    21    22    1
    23    22    23   ar
    24    22    31   ar
    25    23    24   ar
    26    24    25   ar
    27    25    26   ar
    28    25    31   ar
    29    26    27    1
    30    26    28   ar
    31    28    29   ar
    32    29    30   ar
    33    30    31   ar
    34    32    10    1
    35    33    10    1
    36    11    34    1
    37    13    35    1
    38    19    36    1
    39    21    37    1
    40    38    23    1
    41    39    29    1
    42    40    27    1
    43    41    27    1
    44    42    20    1
@<TRIPOS>SUBSTRUCTURE
     1 UNL1        1 TEMP              0 ****  ****    0 ROOT

########## Name:	5	1655.02  0.637752
@<TRIPOS>MOLECULE
af2_protein.mol25	
 42 44 1 0 0
SMALL
GASTEIGER


@<TRIPOS>ATOM
      1 P          -1.7593    5.6678   -1.8183 P.3     1  UNL1        0.0544
      2 O          -2.7393    4.8882   -1.0355 O.co2   1  UNL1       -0.6615
      3 O          -1.5789    5.2052   -3.2362 O.co2   1  UNL1       -0.6615
      4 O          -0.4794    5.9017   -1.1099 O.co2   1  UNL1       -0.6615
      5 P          -2.2458    8.5327   -3.0075 P.3     1  UNL1        0.2491
      6 O          -1.5636    8.9113   -4.2805 O.co2   1  UNL1       -0.6337
      7 O          -1.5333    8.7709   -1.7230 O.co2   1  UNL1       -0.6337
      8 O          -2.4305    7.1615   -1.9866 O.3     1  UNL1       -0.0930
      9 O          -3.6664    9.3197   -2.8943 O.3     1  UNL1       -0.2057
     10 C          -3.7435   10.7141   -3.1162 C.3     1  UNL1        0.1232
     11 C          -5.1420   11.1063   -2.7395 C.3     1  UNL1        0.1214
     12 O          -5.0669   11.5590   -1.3836 O.3     1  UNL1       -0.3453
     13 C          -5.6903   12.2939   -3.5769 C.3     1  UNL1        0.1593
     14 O          -7.1284   12.1398   -3.7503 O.3     1  UNL1       -0.2421
     15 P          -7.7683   10.8043   -4.6009 P.3     1  UNL1       -0.0004
     16 O          -8.7206   11.4887   -5.5103 O.co2   1  UNL1       -0.6646
     17 O          -6.5652   10.2341   -5.2591 O.co2   1  UNL1       -0.6646
     18 O          -8.3531    9.8935   -3.5703 O.co2   1  UNL1       -0.6646
     19 C          -5.3646   13.4688   -2.6627 C.3     1  UNL1        0.1329
     20 O          -6.1873   14.6134   -2.9802 O.3     1  UNL1       -0.3845
     21 C          -5.7845   12.7831   -1.3476 C.3     1  UNL1        0.1668
     22 N          -5.3451   13.4276   -0.0896 N.ar    1  UNL1       -0.2855
     23 C          -4.3947   14.4172   -0.0572 C.ar    1  UNL1        0.1004
     24 N          -4.1275   14.8583    1.1362 N.ar    1  UNL1       -0.2306
     25 C          -4.9746   14.0998    2.0059 C.ar    1  UNL1        0.1473
     26 C          -5.1664   14.1234    3.4531 C.ar    1  UNL1        0.1472
     27 N          -4.4167   14.8886    4.2702 N.pl3   1  UNL1       -0.3413
     28 N          -6.0952   13.2775    3.9717 N.ar    1  UNL1       -0.2188
     29 C          -6.7508   12.4697    3.1253 C.ar    1  UNL1        0.1205
     30 N          -6.6680   12.3343    1.7795 N.ar    1  UNL1       -0.2159
     31 C          -5.7362   13.2085    1.2579 C.ar    1  UNL1        0.1674
     32 H          -3.0271   11.1373   -2.4119 H       1  UNL1        0.0631
     33 H          -3.5189   11.0523   -4.1277 H       1  UNL1        0.0631
     34 H          -5.8101   10.2484   -2.8162 H       1  UNL1        0.0650
     35 H          -5.1782   12.3784   -4.5354 H       1  UNL1        0.0694
     36 H          -4.3025   13.7133   -2.6748 H       1  UNL1        0.0667
     37 H          -5.4227   13.3384   -2.2130 H       1  UNL1        0.0866
     38 H          -3.9111   14.7964   -0.9454 H       1  UNL1        0.1030
     39 H          -7.4678   11.8145    3.5975 H       1  UNL1        0.1048
     40 H          -4.5676   15.8865    4.3070 H       1  UNL1        0.1438
     41 H          -3.7036   14.4642    4.8458 H       1  UNL1        0.1438
     42 H          -6.3221   15.1403   -2.1891 H       1  UNL1        0.2101
@<TRIPOS>BOND
     1     1     2    1
     2     1     3    1
     3     1     4    1
     4     1     8    1
     5     5     6    1
     6     5     7    1
     7     5     8    1
     8     5     9    1
     9     9    10    1
    10    10    11    1
    11    11    12    1
    12    11    13    1
    13    12    21    1
    14    13    14    1
    15    13    19    1
    16    14    15    1
    17    15    16    1
    18    15    17    1
    19    15    18    1
    20    19    20    1
    21    19    21    1
    22    21    22    1
    23    22    23   ar
    24    22    31   ar
    25    23    24   ar
    26    24    25   ar
    27    25    26   ar
    28    25    31   ar
    29    26    27    1
    30    26    28   ar
    31    28    29   ar
    32    29    30   ar
    33    30    31   ar
    34    32    10    1
    35    33    10    1
    36    11    34    1
    37    13    35    1
    38    19    36    1
    39    21    37    1
    40    38    23    1
    41    39    29    1
    42    40    27    1
    43    41    27    1
    44    42    20    1
@<TRIPOS>SUBSTRUCTURE
     1 UNL1        1 TEMP              0 ****  ****    0 ROOT

########## Name:	6	1611.57  0.652914
@<TRIPOS>MOLECULE
af2_protein.mol26	
 42 44 1 0 0
SMALL
GASTEIGER


@<TRIPOS>ATOM
      1 P          -4.4658   14.2539    3.0270 P.3     1  UNL1        0.0544
      2 O          -3.0396   14.6181    2.9073 O.co2   1  UNL1       -0.6615
      3 O          -5.4200   15.4081    2.9071 O.co2   1  UNL1       -0.6615
      4 O          -4.7610   13.3652    4.1750 O.co2   1  UNL1       -0.6615
      5 P          -6.1772   12.8448    0.8034 P.3     1  UNL1        0.2491
      6 O          -7.3015   13.8271    0.8072 O.co2   1  UNL1       -0.6337
      7 O          -6.3376   11.5801    1.5710 O.co2   1  UNL1       -0.6337
      8 O          -4.7939   13.3472    1.6928 O.3     1  UNL1       -0.0930
      9 O          -5.5893   11.8308   -0.3264 O.3     1  UNL1       -0.2057
     10 C          -6.4485   11.2104   -1.2626 C.3     1  UNL1        0.1232
     11 C          -5.9031   11.5721   -2.6129 C.3     1  UNL1        0.1214
     12 O          -4.4932   11.3360   -2.5385 O.3     1  UNL1       -0.3453
     13 C          -6.4473   10.6696   -3.7537 C.3     1  UNL1        0.1593
     14 O          -6.5451   11.4482   -4.9810 O.3     1  UNL1       -0.2421
     15 P          -7.6914   12.7054   -5.1298 P.3     1  UNL1       -0.0004
     16 O          -8.5332   12.4521   -3.9341 O.co2   1  UNL1       -0.6646
     17 O          -6.8453   13.9240   -5.0600 O.co2   1  UNL1       -0.6646
     18 O          -8.3398   12.5241   -6.4642 O.co2   1  UNL1       -0.6646
     19 C          -5.3439    9.6228   -3.8474 C.3     1  UNL1        0.1329
     20 O          -5.3689    8.9600   -5.1311 O.3     1  UNL1       -0.3845
     21 C          -4.1643   10.6056   -3.7103 C.3     1  UNL1        0.1668
     22 N          -2.8380   10.0184   -3.4149 N.ar    1  UNL1       -0.2855
     23 C          -1.6619   10.6729   -3.6835 C.ar    1  UNL1        0.1004
     24 N          -0.5954   10.0002   -3.3670 N.ar    1  UNL1       -0.2306
     25 C          -1.0853    8.7669   -2.8302 C.ar    1  UNL1        0.1473
     26 C          -0.4045    7.5969   -2.2830 C.ar    1  UNL1        0.1472
     27 N           0.9365    7.4679   -2.2960 N.pl3   1  UNL1       -0.3413
     28 N          -1.1831    6.5859   -1.8153 N.ar    1  UNL1       -0.2188
     29 C          -2.5139    6.7236   -1.9088 C.ar    1  UNL1        0.1205
     30 N          -3.2723    7.7350   -2.3969 N.ar    1  UNL1       -0.2159
     31 C          -2.4757    8.7652   -2.8534 C.ar    1  UNL1        0.1674
     32 H          -5.7271   10.6085   -0.7099 H       1  UNL1        0.0631
     33 H          -7.3862   10.6656   -1.3708 H       1  UNL1        0.0631
     34 H          -6.1005   12.6213   -2.8329 H       1  UNL1        0.0650
     35 H          -7.3778   10.1449   -3.5372 H       1  UNL1        0.0694
     36 H          -5.3828    8.9135   -3.0208 H       1  UNL1        0.0667
     37 H          -4.0729   11.6647   -3.9509 H       1  UNL1        0.0866
     38 H          -1.6257   11.6604   -4.1194 H       1  UNL1        0.1030
     39 H          -3.0779    5.8841   -1.5301 H       1  UNL1        0.1048
     40 H           1.5021    8.0062   -1.6554 H       1  UNL1        0.1438
     41 H           1.3764    6.8329   -2.9467 H       1  UNL1        0.1438
     42 H          -4.4815    8.6757   -5.3622 H       1  UNL1        0.2101
@<TRIPOS>BOND
     1     1     2    1
     2     1     3    1
     3     1     4    1
     4     1     8    1
     5     5     6    1
     6     5     7    1
     7     5     8    1
     8     5     9    1
     9     9    10    1
    10    10    11    1
    11    11    12    1
    12    11    13    1
    13    12    21    1
    14    13    14    1
    15    13    19    1
    16    14    15    1
    17    15    16    1
    18    15    17    1
    19    15    18    1
    20    19    20    1
    21    19    21    1
    22    21    22    1
    23    22    23   ar
    24    22    31   ar
    25    23    24   ar
    26    24    25   ar
    27    25    26   ar
    28    25    31   ar
    29    26    27    1
    30    26    28   ar
    31    28    29   ar
    32    29    30   ar
    33    30    31   ar
    34    32    10    1
    35    33    10    1
    36    11    34    1
    37    13    35    1
    38    19    36    1
    39    21    37    1
    40    38    23    1
    41    39    29    1
    42    40    27    1
    43    41    27    1
    44    42    20    1
@<TRIPOS>SUBSTRUCTURE
     1 UNL1        1 TEMP              0 ****  ****    0 ROOT

########## Name:	7	1597.64  0.63396
@<TRIPOS>MOLECULE
af2_protein.mol27	
 42 44 1 0 0
SMALL
GASTEIGER


@<TRIPOS>ATOM
      1 P          -1.0931    6.3177   -2.1364 P.3     1  UNL1        0.0544
      2 O          -1.0468    5.9680   -0.7023 O.co2   1  UNL1       -0.6615
      3 O          -2.0572    5.5020   -2.9500 O.co2   1  UNL1       -0.6615
      4 O           0.2430    6.4451   -2.7636 O.co2   1  UNL1       -0.6615
      5 P          -2.6198    8.8013   -3.3025 P.3     1  UNL1        0.2491
      6 O          -3.4358    8.6106   -4.5381 O.co2   1  UNL1       -0.6337
      7 O          -1.2125    9.2632   -3.4461 O.co2   1  UNL1       -0.6337
      8 O          -1.7340    7.8331   -2.1914 O.3     1  UNL1       -0.0930
      9 O          -3.4265    9.8614   -2.3667 O.3     1  UNL1       -0.2057
     10 C          -3.8957   11.0860   -2.8955 C.3     1  UNL1        0.1232
     11 C          -5.3813   11.0745   -2.6839 C.3     1  UNL1        0.1214
     12 O          -5.5744   11.2381   -1.2750 O.3     1  UNL1       -0.3453
     13 C          -6.1062   12.2617   -3.3747 C.3     1  UNL1        0.1593
     14 O          -7.4329   11.8363   -3.8002 O.3     1  UNL1       -0.2421
     15 P          -8.1549   12.4954   -5.2006 P.3     1  UNL1       -0.0004
     16 O          -7.8722   11.4224   -6.1861 O.co2   1  UNL1       -0.6646
     17 O          -9.5789   12.6251   -4.7992 O.co2   1  UNL1       -0.6646
     18 O          -7.4935   13.8159   -5.4299 O.co2   1  UNL1       -0.6646
     19 C          -6.1858   13.2610   -2.2269 C.3     1  UNL1        0.1329
     20 O          -7.2234   14.2381   -2.4643 O.3     1  UNL1       -0.3845
     21 C          -6.5706   12.2399   -1.1382 C.3     1  UNL1        0.1668
     22 N          -6.4492   12.6866    0.2678 N.ar    1  UNL1       -0.2855
     23 C          -7.4787   12.5823    1.1694 C.ar    1  UNL1        0.1004
     24 N          -7.1946   13.0347    2.3547 N.ar    1  UNL1       -0.2306
     25 C          -5.8419   13.4930    2.2580 C.ar    1  UNL1        0.1473
     26 C          -4.9368   14.0898    3.2361 C.ar    1  UNL1        0.1472
     27 N          -5.3299   14.4116    4.4839 N.pl3   1  UNL1       -0.3413
     28 N          -3.6774   14.3854    2.8194 N.ar    1  UNL1       -0.2188
     29 C          -3.3630   14.1300    1.5409 C.ar    1  UNL1        0.1205
     30 N          -4.0953   13.5964    0.5333 N.ar    1  UNL1       -0.2159
     31 C          -5.3668   13.2823    0.9681 C.ar    1  UNL1        0.1674
     32 H          -3.3904   11.4984   -2.0222 H       1  UNL1        0.0631
     33 H          -3.6480   11.6694   -3.7821 H       1  UNL1        0.0631
     34 H          -5.8044   10.1267   -3.0169 H       1  UNL1        0.0650
     35 H          -6.0795   13.3288   -3.1540 H       1  UNL1        0.0694
     36 H          -5.2203   13.7290   -2.0351 H       1  UNL1        0.0667
     37 H          -7.4734   11.6454   -1.2780 H       1  UNL1        0.0866
     38 H          -8.4406   12.1613    0.9165 H       1  UNL1        0.1030
     39 H          -2.3524   14.3954    1.2675 H       1  UNL1        0.1048
     40 H          -5.4762   13.6855    5.1705 H       1  UNL1        0.1438
     41 H          -5.4786   15.3791    4.7327 H       1  UNL1        0.1438
     42 H          -7.5668   14.5512   -1.6243 H       1  UNL1        0.2101
@<TRIPOS>BOND
     1     1     2    1
     2     1     3    1
     3     1     4    1
     4     1     8    1
     5     5     6    1
     6     5     7    1
     7     5     8    1
     8     5     9    1
     9     9    10    1
    10    10    11    1
    11    11    12    1
    12    11    13    1
    13    12    21    1
    14    13    14    1
    15    13    19    1
    16    14    15    1
    17    15    16    1
    18    15    17    1
    19    15    18    1
    20    19    20    1
    21    19    21    1
    22    21    22    1
    23    22    23   ar
    24    22    31   ar
    25    23    24   ar
    26    24    25   ar
    27    25    26   ar
    28    25    31   ar
    29    26    27    1
    30    26    28   ar
    31    28    29   ar
    32    29    30   ar
    33    30    31   ar
    34    32    10    1
    35    33    10    1
    36    11    34    1
    37    13    35    1
    38    19    36    1
    39    21    37    1
    40    38    23    1
    41    39    29    1
    42    40    27    1
    43    41    27    1
    44    42    20    1
@<TRIPOS>SUBSTRUCTURE
     1 UNL1        1 TEMP              0 ****  ****    0 ROOT

########## Name:	8	1624.72  0.644692
@<TRIPOS>MOLECULE
af2_protein.mol28	
 42 44 1 0 0
SMALL
GASTEIGER


@<TRIPOS>ATOM
      1 P          -1.4962    6.3640   -5.1353 P.3     1  UNL1        0.0544
      2 O          -2.5309    5.5234   -5.7707 O.co2   1  UNL1       -0.6615
      3 O          -0.8769    7.3891   -6.0423 O.co2   1  UNL1       -0.6615
      4 O          -0.5009    5.5958   -4.3517 O.co2   1  UNL1       -0.6615
      5 P          -2.0428    8.7260   -3.1401 P.3     1  UNL1        0.2491
      6 O          -1.3605    9.8431   -3.8582 O.co2   1  UNL1       -0.6337
      7 O          -1.4502    8.2346   -1.8667 O.co2   1  UNL1       -0.6337
      8 O          -2.3008    7.2738   -4.0241 O.3     1  UNL1       -0.0930
      9 O          -3.5068    9.4361   -3.0861 O.3     1  UNL1       -0.2057
     10 C          -3.6643   10.7349   -2.5497 C.3     1  UNL1        0.1232
     11 C          -5.1455   10.9553   -2.4536 C.3     1  UNL1        0.1214
     12 O          -5.4193   11.1540   -1.0627 O.3     1  UNL1       -0.3453
     13 C          -5.6218   12.2371   -3.1900 C.3     1  UNL1        0.1593
     14 O          -6.9614   12.0206   -3.7197 O.3     1  UNL1       -0.2421
     15 P          -7.2402   10.8662   -4.9470 P.3     1  UNL1       -0.0004
     16 O          -7.2988   11.7446   -6.1418 O.co2   1  UNL1       -0.6646
     17 O          -6.0359   10.0018   -4.8570 O.co2   1  UNL1       -0.6646
     18 O          -8.4977   10.1514   -4.5707 O.co2   1  UNL1       -0.6646
     19 C          -5.6339   13.2425   -2.0449 C.3     1  UNL1        0.1329
     20 O          -6.4859   14.3676   -2.3548 O.3     1  UNL1       -0.3845
     21 C          -6.2556   12.2990   -0.9963 C.3     1  UNL1        0.1668
     22 N          -6.1755   12.7286    0.4180 N.ar    1  UNL1       -0.2855
     23 C          -7.0874   12.3337    1.3647 C.ar    1  UNL1        0.1004
     24 N          -6.8648   12.8172    2.5509 N.ar    1  UNL1       -0.2306
     25 C          -5.6887   13.6201    2.4051 C.ar    1  UNL1        0.1473
     26 C          -4.9183   14.4125    3.3593 C.ar    1  UNL1        0.1472
     27 N          -5.3098   14.5889    4.6363 N.pl3   1  UNL1       -0.3413
     28 N          -3.8076   15.0414    2.8926 N.ar    1  UNL1       -0.2188
     29 C          -3.5111   14.9089    1.5913 C.ar    1  UNL1        0.1205
     30 N          -4.1335   14.2239    0.6015 N.ar    1  UNL1       -0.2159
     31 C          -5.2500   13.5735    1.0863 C.ar    1  UNL1        0.1674
     32 H          -3.1702   11.0683   -1.6371 H       1  UNL1        0.0631
     33 H          -3.2612   11.2683   -3.4105 H       1  UNL1        0.0631
     34 H          -5.6835   10.0830   -2.8249 H       1  UNL1        0.0650
     35 H          -4.9335   12.5714   -3.9662 H       1  UNL1        0.0694
     36 H          -4.6239   13.5555   -1.7806 H       1  UNL1        0.0667
     37 H          -6.9762   11.4897   -1.1139 H       1  UNL1        0.0866
     38 H          -7.9171   11.6786    1.1437 H       1  UNL1        0.1030
     39 H          -2.6238   15.4392    1.2787 H       1  UNL1        0.1048
     40 H          -5.2196   13.8341    5.3012 H       1  UNL1        0.1438
     41 H          -5.6936   15.4762    4.9287 H       1  UNL1        0.1438
     42 H          -6.8370   14.7372   -1.5413 H       1  UNL1        0.2101
@<TRIPOS>BOND
     1     1     2    1
     2     1     3    1
     3     1     4    1
     4     1     8    1
     5     5     6    1
     6     5     7    1
     7     5     8    1
     8     5     9    1
     9     9    10    1
    10    10    11    1
    11    11    12    1
    12    11    13    1
    13    12    21    1
    14    13    14    1
    15    13    19    1
    16    14    15    1
    17    15    16    1
    18    15    17    1
    19    15    18    1
    20    19    20    1
    21    19    21    1
    22    21    22    1
    23    22    23   ar
    24    22    31   ar
    25    23    24   ar
    26    24    25   ar
    27    25    26   ar
    28    25    31   ar
    29    26    27    1
    30    26    28   ar
    31    28    29   ar
    32    29    30   ar
    33    30    31   ar
    34    32    10    1
    35    33    10    1
    36    11    34    1
    37    13    35    1
    38    19    36    1
    39    21    37    1
    40    38    23    1
    41    39    29    1
    42    40    27    1
    43    41    27    1
    44    42    20    1
@<TRIPOS>SUBSTRUCTURE
     1 UNL1        1 TEMP              0 ****  ****    0 ROOT

########## Name:	9	1618.85  0.648253
@<TRIPOS>MOLECULE
af2_protein.mol29	
 42 44 1 0 0
SMALL
GASTEIGER


@<TRIPOS>ATOM
      1 P          -1.1834    7.2968   -1.9450 P.3     1  UNL1        0.0544
      2 O          -1.2211    7.0064   -0.4975 O.co2   1  UNL1       -0.6615
      3 O          -1.9355    6.3175   -2.8008 O.co2   1  UNL1       -0.6615
      4 O           0.1722    7.6040   -2.4575 O.co2   1  UNL1       -0.6615
      5 P          -2.2862    9.8809   -3.3466 P.3     1  UNL1        0.2491
      6 O          -1.7994   10.8669   -4.3566 O.co2   1  UNL1       -0.6337
      7 O          -1.3640    9.4720   -2.2527 O.co2   1  UNL1       -0.6337
      8 O          -2.0332    8.6947   -2.1277 O.3     1  UNL1       -0.0930
      9 O          -3.8118   10.3952   -3.1048 O.3     1  UNL1       -0.2057
     10 C          -4.0752   11.7289   -2.7159 C.3     1  UNL1        0.1232
     11 C          -5.5306   11.7637   -2.3524 C.3     1  UNL1        0.1214
     12 O          -5.5724   11.8736   -0.9258 O.3     1  UNL1       -0.3453
     13 C          -6.2723   13.0057   -2.9178 C.3     1  UNL1        0.1593
     14 O          -7.6518   12.6487   -3.2201 O.3     1  UNL1       -0.2421
     15 P          -8.0295   11.7007   -4.5896 P.3     1  UNL1       -0.0004
     16 O          -9.1371   12.4953   -5.1764 O.co2   1  UNL1       -0.6646
     17 O          -6.7591   11.7237   -5.3586 O.co2   1  UNL1       -0.6646
     18 O          -8.3721   10.3402   -4.0745 O.co2   1  UNL1       -0.6646
     19 C          -6.1931   13.9570   -1.7299 C.3     1  UNL1        0.1329
     20 O          -7.2081   14.9814   -1.8204 O.3     1  UNL1       -0.3845
     21 C          -6.5071   12.9050   -0.6478 C.3     1  UNL1        0.1668
     22 N          -6.2248   13.2860    0.7545 N.ar    1  UNL1       -0.2855
     23 C          -7.2166   13.4793    1.6833 C.ar    1  UNL1        0.1004
     24 N          -6.7827   13.8200    2.8606 N.ar    1  UNL1       -0.2306
     25 C          -5.3581   13.8648    2.7278 C.ar    1  UNL1        0.1473
     26 C          -4.2936   14.1643    3.6812 C.ar    1  UNL1        0.1472
     27 N          -4.5438   14.5770    4.9391 N.pl3   1  UNL1       -0.3413
     28 N          -3.0139   14.0833    3.2310 N.ar    1  UNL1       -0.2188
     29 C          -2.8203   13.7573    1.9446 C.ar    1  UNL1        0.1205
     30 N          -3.7019   13.4681    0.9569 N.ar    1  UNL1       -0.2159
     31 C          -4.9983   13.5349    1.4256 C.ar    1  UNL1        0.1674
     32 H          -3.4669   12.0843   -1.8841 H       1  UNL1        0.0631
     33 H          -3.8949   12.3404   -3.6000 H       1  UNL1        0.0631
     34 H          -6.0244   10.8476   -2.6765 H       1  UNL1        0.0650
     35 H          -5.8252   13.5920   -3.7205 H       1  UNL1        0.0694
     36 H          -5.1937   14.3801   -1.6295 H       1  UNL1        0.0667
     37 H          -7.5473   12.6006   -0.7634 H       1  UNL1        0.0866
     38 H          -8.2656   13.3588    1.4562 H       1  UNL1        0.1030
     39 H          -1.7837   13.7188    1.6442 H       1  UNL1        0.1048
     40 H          -4.8778   13.9197    5.6294 H       1  UNL1        0.1438
     41 H          -4.3975   15.5438    5.1918 H       1  UNL1        0.1438
     42 H          -7.4454   15.2761   -0.9381 H       1  UNL1        0.2101
@<TRIPOS>BOND
     1     1     2    1
     2     1     3    1
     3     1     4    1
     4     1     8    1
     5     5     6    1
     6     5     7    1
     7     5     8    1
     8     5     9    1
     9     9    10    1
    10    10    11    1
    11    11    12    1
    12    11    13    1
    13    12    21    1
    14    13    14    1
    15    13    19    1
    16    14    15    1
    17    15    16    1
    18    15    17    1
    19    15    18    1
    20    19    20    1
    21    19    21    1
    22    21    22    1
    23    22    23   ar
    24    22    31   ar
    25    23    24   ar
    26    24    25   ar
    27    25    26   ar
    28    25    31   ar
    29    26    27    1
    30    26    28   ar
    31    28    29   ar
    32    29    30   ar
    33    30    31   ar
    34    32    10    1
    35    33    10    1
    36    11    34    1
    37    13    35    1
    38    19    36    1
    39    21    37    1
    40    38    23    1
    41    39    29    1
    42    40    27    1
    43    41    27    1
    44    42    20    1
@<TRIPOS>SUBSTRUCTURE
     1 UNL1        1 TEMP              0 ****  ****    0 ROOT

########## Name:	10	1794.79  0.577876
@<TRIPOS>MOLECULE
af2_protein.mol210	
 42 44 1 0 0
SMALL
GASTEIGER


@<TRIPOS>ATOM
      1 P          -1.9387    7.9549   -4.5633 P.3     1  UNL1        0.0544
      2 O          -1.9082    7.5230   -5.9753 O.co2   1  UNL1       -0.6615
      3 O          -0.6804    8.6210   -4.0839 O.co2   1  UNL1       -0.6615
      4 O          -2.4460    6.9196   -3.6329 O.co2   1  UNL1       -0.6615
      5 P          -3.5351   10.4019   -3.4134 P.3     1  UNL1        0.2491
      6 O          -2.2454   10.9623   -2.9117 O.co2   1  UNL1       -0.6337
      7 O          -4.5453    9.9473   -2.4198 O.co2   1  UNL1       -0.6337
      8 O          -3.0560    9.1625   -4.5047 O.3     1  UNL1       -0.0930
      9 O          -4.5562   11.3319   -4.2754 O.3     1  UNL1       -0.2057
     10 C          -4.8349   12.6612   -3.8821 C.3     1  UNL1        0.1232
     11 C          -5.8111   12.5506   -2.7479 C.3     1  UNL1        0.1214
     12 O          -5.0307   12.6524   -1.5522 O.3     1  UNL1       -0.3453
     13 C          -6.8389   13.7144   -2.7104 C.3     1  UNL1        0.1593
     14 O          -8.1064   13.2231   -2.1868 O.3     1  UNL1       -0.2421
     15 P          -9.0442   12.1050   -3.0738 P.3     1  UNL1       -0.0004
     16 O         -10.2727   12.9035   -3.3100 O.co2   1  UNL1       -0.6646
     17 O          -8.2069   11.8634   -4.2764 O.co2   1  UNL1       -0.6646
     18 O          -9.1806   10.8942   -2.2082 O.co2   1  UNL1       -0.6646
     19 C          -6.1649   14.6659   -1.7293 C.3     1  UNL1        0.1329
     20 O          -7.1237   15.5848   -1.1601 O.3     1  UNL1       -0.3845
     21 C          -5.7121   13.5853   -0.7276 C.3     1  UNL1        0.1668
     22 N          -4.7039   13.9889    0.2783 N.ar    1  UNL1       -0.2855
     23 C          -3.8002   14.9980    0.0574 C.ar    1  UNL1        0.1004
     24 N          -2.9844   15.2067    1.0479 N.ar    1  UNL1       -0.2306
     25 C          -3.3638   14.2505    2.0434 C.ar    1  UNL1        0.1473
     26 C          -2.8555   13.9778    3.3847 C.ar    1  UNL1        0.1472
     27 N          -1.7735   14.6020    3.8894 N.pl3   1  UNL1       -0.3413
     28 N          -3.4754   13.0015    4.0986 N.ar    1  UNL1       -0.2188
     29 C          -4.4901   12.3460    3.5162 C.ar    1  UNL1        0.1205
     30 N          -5.0529   12.4838    2.2912 N.ar    1  UNL1       -0.2159
     31 C          -4.4303   13.4886    1.5789 C.ar    1  UNL1        0.1674
     32 H          -3.8888   13.0731   -3.5308 H       1  UNL1        0.0631
     33 H          -5.2471   13.2897   -4.6714 H       1  UNL1        0.0631
     34 H          -6.3265   11.5909   -2.7835 H       1  UNL1        0.0650
     35 H          -6.9732   14.2413   -3.6551 H       1  UNL1        0.0694
     36 H          -5.3205   15.1853   -2.1824 H       1  UNL1        0.0667
     37 H          -5.7693   14.3179   -1.5326 H       1  UNL1        0.0866
     38 H          -3.7695   15.5687   -0.8591 H       1  UNL1        0.1030
     39 H          -4.9352   11.5759    4.1288 H       1  UNL1        0.1048
     40 H          -1.8393   15.5643    4.1889 H       1  UNL1        0.1438
     41 H          -0.8963   14.1076    3.9681 H       1  UNL1        0.1438
     42 H          -6.8380   15.8417   -0.2803 H       1  UNL1        0.2101
@<TRIPOS>BOND
     1     1     2    1
     2     1     3    1
     3     1     4    1
     4     1     8    1
     5     5     6    1
     6     5     7    1
     7     5     8    1
     8     5     9    1
     9     9    10    1
    10    10    11    1
    11    11    12    1
    12    11    13    1
    13    12    21    1
    14    13    14    1
    15    13    19    1
    16    14    15    1
    17    15    16    1
    18    15    17    1
    19    15    18    1
    20    19    20    1
    21    19    21    1
    22    21    22    1
    23    22    23   ar
    24    22    31   ar
    25    23    24   ar
    26    24    25   ar
    27    25    26   ar
    28    25    31   ar
    29    26    27    1
    30    26    28   ar
    31    28    29   ar
    32    29    30   ar
    33    30    31   ar
    34    32    10    1
    35    33    10    1
    36    11    34    1
    37    13    35    1
    38    19    36    1
    39    21    37    1
    40    38    23    1
    41    39    29    1
    42    40    27    1
    43    41    27    1
    44    42    20    1
@<TRIPOS>SUBSTRUCTURE
     1 UNL1        1 TEMP              0 ****  ****    0 ROOT

########## Name:	11	1828.71  0.537982
@<TRIPOS>MOLECULE
af2_protein.mol211	
 42 44 1 0 0
SMALL
GASTEIGER


@<TRIPOS>ATOM
      1 P          -2.9493    7.2162   -4.6909 P.3     1  UNL1        0.0544
      2 O          -3.0242    6.7577   -6.0928 O.co2   1  UNL1       -0.6615
      3 O          -1.6043    7.7392   -4.2732 O.co2   1  UNL1       -0.6615
      4 O          -3.5367    6.2648   -3.7191 O.co2   1  UNL1       -0.6615
      5 P          -4.2504    9.8191   -3.5116 P.3     1  UNL1        0.2491
      6 O          -2.8320   10.1239   -3.1592 O.co2   1  UNL1       -0.6337
      7 O          -5.2254    9.6057   -2.4079 O.co2   1  UNL1       -0.6337
      8 O          -3.9154    8.5471   -4.6192 O.3     1  UNL1       -0.0930
      9 O          -4.8974   10.9985   -4.4287 O.3     1  UNL1       -0.2057
     10 C          -4.7687   12.3575   -4.0603 C.3     1  UNL1        0.1232
     11 C          -5.8455   12.6044   -3.0448 C.3     1  UNL1        0.1214
     12 O          -5.1751   12.7043   -1.7840 O.3     1  UNL1       -0.3453
     13 C          -6.5928   13.9487   -3.2608 C.3     1  UNL1        0.1593
     14 O          -7.9797   13.8039   -2.8394 O.3     1  UNL1       -0.2421
     15 P          -9.0236   12.7075   -3.6299 P.3     1  UNL1       -0.0004
     16 O         -10.2082   13.5720   -3.8576 O.co2   1  UNL1       -0.6646
     17 O          -8.2558   12.3537   -4.8510 O.co2   1  UNL1       -0.6646
     18 O          -9.1987   11.5517   -2.6987 O.co2   1  UNL1       -0.6646
     19 C          -5.8201   14.8651   -2.3199 C.3     1  UNL1        0.1329
     20 O          -6.6027   16.0298   -1.9755 O.3     1  UNL1       -0.3845
     21 C          -5.7088   13.8602   -1.1564 C.3     1  UNL1        0.1668
     22 N          -4.7336   14.1802   -0.0897 N.ar    1  UNL1       -0.2855
     23 C          -3.6221   14.9545   -0.3105 C.ar    1  UNL1        0.1004
     24 N          -2.8737   15.1212    0.7395 N.ar    1  UNL1       -0.2306
     25 C          -3.5337   14.3925    1.7799 C.ar    1  UNL1        0.1473
     26 C          -3.2174   14.1962    3.1917 C.ar    1  UNL1        0.1472
     27 N          -2.0788   14.6528    3.7485 N.pl3   1  UNL1       -0.3413
     28 N          -4.0903   13.4598    3.9286 N.ar    1  UNL1       -0.2188
     29 C          -5.1630   12.9497    3.3060 C.ar    1  UNL1        0.1205
     30 N          -5.5712   13.0402    2.0169 N.ar    1  UNL1       -0.2159
     31 C          -4.6899   13.8040    1.2790 C.ar    1  UNL1        0.1674
     32 H          -3.7919   12.6099   -3.6477 H       1  UNL1        0.0631
     33 H          -4.9591   12.9447   -4.9586 H       1  UNL1        0.0631
     34 H          -6.5530   11.7753   -3.0331 H       1  UNL1        0.0650
     35 H          -6.5216   14.2849   -4.2952 H       1  UNL1        0.0694
     36 H          -4.9065   15.1297   -2.8522 H       1  UNL1        0.0667
     37 H          -5.5380   14.4820   -2.0351 H       1  UNL1        0.0866
     38 H          -3.3896   15.3876   -1.2722 H       1  UNL1        0.1030
     39 H          -5.8133   12.3665    3.9411 H       1  UNL1        0.1048
     40 H          -1.9681   15.6391    3.9358 H       1  UNL1        0.1438
     41 H          -1.3356   14.0087    3.9786 H       1  UNL1        0.1438
     42 H          -6.2660   16.4130   -1.1622 H       1  UNL1        0.2101
@<TRIPOS>BOND
     1     1     2    1
     2     1     3    1
     3     1     4    1
     4     1     8    1
     5     5     6    1
     6     5     7    1
     7     5     8    1
     8     5     9    1
     9     9    10    1
    10    10    11    1
    11    11    12    1
    12    11    13    1
    13    12    21    1
    14    13    14    1
    15    13    19    1
    16    14    15    1
    17    15    16    1
    18    15    17    1
    19    15    18    1
    20    19    20    1
    21    19    21    1
    22    21    22    1
    23    22    23   ar
    24    22    31   ar
    25    23    24   ar
    26    24    25   ar
    27    25    26   ar
    28    25    31   ar
    29    26    27    1
    30    26    28   ar
    31    28    29   ar
    32    29    30   ar
    33    30    31   ar
    34    32    10    1
    35    33    10    1
    36    11    34    1
    37    13    35    1
    38    19    36    1
    39    21    37    1
    40    38    23    1
    41    39    29    1
    42    40    27    1
    43    41    27    1
    44    42    20    1
@<TRIPOS>SUBSTRUCTURE
     1 UNL1        1 TEMP              0 ****  ****    0 ROOT

########## Name:	12	1714.73  0.623746
@<TRIPOS>MOLECULE
af2_protein.mol212	
 42 44 1 0 0
SMALL
GASTEIGER


@<TRIPOS>ATOM
      1 P          -2.8744    7.5935   -5.0669 P.3     1  UNL1        0.0544
      2 O          -1.4146    7.8138   -5.0279 O.co2   1  UNL1       -0.6615
      3 O          -3.3875    6.6102   -4.0537 O.co2   1  UNL1       -0.6615
      4 O          -3.4076    7.3641   -6.4300 O.co2   1  UNL1       -0.6615
      5 P          -3.1047   10.3591   -3.5981 P.3     1  UNL1        0.2491
      6 O          -1.7061   10.6565   -3.1685 O.co2   1  UNL1       -0.6337
      7 O          -3.9595    9.5296   -2.7062 O.co2   1  UNL1       -0.6337
      8 O          -3.5399    9.0201   -4.5853 O.3     1  UNL1       -0.0930
      9 O          -4.4465   11.2795   -3.5448 O.3     1  UNL1       -0.2057
     10 C          -4.6268   12.2415   -2.5242 C.3     1  UNL1        0.1232
     11 C          -6.0621   12.1199   -2.1036 C.3     1  UNL1        0.1214
     12 O          -6.0538   12.1744   -0.6732 O.3     1  UNL1       -0.3453
     13 C          -6.9439   13.3022   -2.5903 C.3     1  UNL1        0.1593
     14 O          -8.2939   12.8221   -2.8528 O.3     1  UNL1       -0.2421
     15 P          -8.5874   11.6601   -4.0695 P.3     1  UNL1       -0.0004
     16 O          -7.1983   11.2698   -4.4170 O.co2   1  UNL1       -0.6646
     17 O          -9.3718   10.6267   -3.3467 O.co2   1  UNL1       -0.6646
     18 O          -9.3797   12.3553   -5.1290 O.co2   1  UNL1       -0.6646
     19 C          -6.9069   14.2138   -1.3696 C.3     1  UNL1        0.1329
     20 O          -8.0193   15.1359   -1.3802 O.3     1  UNL1       -0.3845
     21 C          -7.0713   13.0982   -0.3187 C.3     1  UNL1        0.1668
     22 N          -6.7681   13.4550    1.0856 N.ar    1  UNL1       -0.2855
     23 C          -7.7337   13.5168    2.0590 C.ar    1  UNL1        0.1004
     24 N          -7.2853   13.8565    3.2311 N.ar    1  UNL1       -0.2306
     25 C          -5.8786   14.0457    3.0452 C.ar    1  UNL1        0.1473
     26 C          -4.8087   14.4143    3.9678 C.ar    1  UNL1        0.1472
     27 N          -5.0441   14.7555    5.2497 N.pl3   1  UNL1       -0.3413
     28 N          -3.5473   14.4754    3.4656 N.ar    1  UNL1       -0.2188
     29 C          -3.3778   14.2159    2.1608 C.ar    1  UNL1        0.1205
     30 N          -4.2684   13.8768    1.1973 N.ar    1  UNL1       -0.2159
     31 C          -5.5440   13.7992    1.7181 C.ar    1  UNL1        0.1674
     32 H          -4.0211   12.6252   -1.7032 H       1  UNL1        0.0631
     33 H          -4.5443   12.8987   -3.3898 H       1  UNL1        0.0631
     34 H          -6.4780   11.1717   -2.4443 H       1  UNL1        0.0650
     35 H          -6.5143   13.7883   -3.4662 H       1  UNL1        0.0694
     36 H          -5.9655   14.7067   -1.6121 H       1  UNL1        0.0667
     37 H          -8.0812   12.6974   -0.4059 H       1  UNL1        0.0866
     38 H          -8.7748   13.3020    1.8680 H       1  UNL1        0.1030
     39 H          -2.3559   14.2901    1.8192 H       1  UNL1        0.1048
     40 H          -5.2834   14.0444    5.9259 H       1  UNL1        0.1438
     41 H          -4.9813   15.7224    5.5346 H       1  UNL1        0.1438
     42 H          -8.0659   15.5914   -0.5364 H       1  UNL1        0.2101
@<TRIPOS>BOND
     1     1     2    1
     2     1     3    1
     3     1     4    1
     4     1     8    1
     5     5     6    1
     6     5     7    1
     7     5     8    1
     8     5     9    1
     9     9    10    1
    10    10    11    1
    11    11    12    1
    12    11    13    1
    13    12    21    1
    14    13    14    1
    15    13    19    1
    16    14    15    1
    17    15    16    1
    18    15    17    1
    19    15    18    1
    20    19    20    1
    21    19    21    1
    22    21    22    1
    23    22    23   ar
    24    22    31   ar
    25    23    24   ar
    26    24    25   ar
    27    25    26   ar
    28    25    31   ar
    29    26    27    1
    30    26    28   ar
    31    28    29   ar
    32    29    30   ar
    33    30    31   ar
    34    32    10    1
    35    33    10    1
    36    11    34    1
    37    13    35    1
    38    19    36    1
    39    21    37    1
    40    38    23    1
    41    39    29    1
    42    40    27    1
    43    41    27    1
    44    42    20    1
@<TRIPOS>SUBSTRUCTURE
     1 UNL1        1 TEMP              0 ****  ****    0 ROOT

########## Name:	13	1732.46  0.654443
@<TRIPOS>MOLECULE
af2_protein.mol213	
 42 44 1 0 0
SMALL
GASTEIGER


@<TRIPOS>ATOM
      1 P          -2.7480    6.3255   -5.4057 P.3     1  UNL1        0.0544
      2 O          -3.9132    5.6716   -6.0348 O.co2   1  UNL1       -0.6615
      3 O          -1.9893    7.2574   -6.3073 O.co2   1  UNL1       -0.6615
      4 O          -1.8740    5.3946   -4.6545 O.co2   1  UNL1       -0.6615
      5 P          -2.8805    8.7048   -3.3611 P.3     1  UNL1        0.2491
      6 O          -2.1102    9.6235   -4.2510 O.co2   1  UNL1       -0.6337
      7 O          -2.2434    8.2402   -2.0991 O.co2   1  UNL1       -0.6337
      8 O          -3.3798    7.3292   -4.2640 O.3     1  UNL1       -0.0930
      9 O          -4.2520    9.5432   -3.1033 O.3     1  UNL1       -0.2057
     10 C          -4.2100   10.8847   -2.6586 C.3     1  UNL1        0.1232
     11 C          -5.6362   11.2659   -2.3896 C.3     1  UNL1        0.1214
     12 O          -5.7962   11.1948   -0.9689 O.3     1  UNL1       -0.3453
     13 C          -5.9672   12.7258   -2.8036 C.3     1  UNL1        0.1593
     14 O          -7.3529   12.8002   -3.2466 O.3     1  UNL1       -0.2421
     15 P          -7.8793   11.9331   -4.6205 P.3     1  UNL1       -0.0004
     16 O          -9.1876   12.5866   -4.8729 O.co2   1  UNL1       -0.6646
     17 O          -6.8203   12.2336   -5.6174 O.co2   1  UNL1       -0.6646
     18 O          -7.9084   10.4934   -4.2202 O.co2   1  UNL1       -0.6646
     19 C          -5.7679   13.4552   -1.4805 C.3     1  UNL1        0.1329
     20 O          -6.4671   14.7196   -1.4778 O.3     1  UNL1       -0.3845
     21 C          -6.4549   12.3957   -0.5966 C.3     1  UNL1        0.1668
     22 N          -6.2308   12.4981    0.8631 N.ar    1  UNL1       -0.2855
     23 C          -6.6158   11.5167    1.7420 C.ar    1  UNL1        0.1004
     24 N          -6.3476   11.7828    2.9860 N.ar    1  UNL1       -0.2306
     25 C          -5.7189   13.0686    2.9589 C.ar    1  UNL1        0.1473
     26 C          -5.1692   13.9134    4.0153 C.ar    1  UNL1        0.1472
     27 N          -5.2750   13.6000    5.3213 N.pl3   1  UNL1       -0.3413
     28 N          -4.5986   15.0881    3.6392 N.ar    1  UNL1       -0.2188
     29 C          -4.6001   15.3973    2.3342 C.ar    1  UNL1        0.1205
     30 N          -5.0778   14.7234    1.2599 N.ar    1  UNL1       -0.2159
     31 C          -5.6396   13.5238    1.6473 C.ar    1  UNL1        0.1674
     32 H          -3.6203   10.9490   -1.7441 H       1  UNL1        0.0631
     33 H          -3.7863   11.5347   -3.4241 H       1  UNL1        0.0631
     34 H          -6.3143   10.5693   -2.8827 H       1  UNL1        0.0650
     35 H          -5.2820   13.0903   -3.5689 H       1  UNL1        0.0694
     36 H          -5.1108   13.3537   -2.3443 H       1  UNL1        0.0667
     37 H          -6.7509   11.3834   -0.8718 H       1  UNL1        0.0866
     38 H          -7.0990   10.6034    1.4277 H       1  UNL1        0.1030
     39 H          -4.1419   16.3466    2.0991 H       1  UNL1        0.1048
     40 H          -4.7037   12.8646    5.7123 H       1  UNL1        0.1438
     41 H          -5.9259   14.1004    5.9096 H       1  UNL1        0.1438
     42 H          -5.9020   15.3974   -1.0999 H       1  UNL1        0.2101
@<TRIPOS>BOND
     1     1     2    1
     2     1     3    1
     3     1     4    1
     4     1     8    1
     5     5     6    1
     6     5     7    1
     7     5     8    1
     8     5     9    1
     9     9    10    1
    10    10    11    1
    11    11    12    1
    12    11    13    1
    13    12    21    1
    14    13    14    1
    15    13    19    1
    16    14    15    1
    17    15    16    1
    18    15    17    1
    19    15    18    1
    20    19    20    1
    21    19    21    1
    22    21    22    1
    23    22    23   ar
    24    22    31   ar
    25    23    24   ar
    26    24    25   ar
    27    25    26   ar
    28    25    31   ar
    29    26    27    1
    30    26    28   ar
    31    28    29   ar
    32    29    30   ar
    33    30    31   ar
    34    32    10    1
    35    33    10    1
    36    11    34    1
    37    13    35    1
    38    19    36    1
    39    21    37    1
    40    38    23    1
    41    39    29    1
    42    40    27    1
    43    41    27    1
    44    42    20    1
@<TRIPOS>SUBSTRUCTURE
     1 UNL1        1 TEMP              0 ****  ****    0 ROOT

########## Name:	14	1756.19  0.612953
@<TRIPOS>MOLECULE
af2_protein.mol214	
 42 44 1 0 0
SMALL
GASTEIGER


@<TRIPOS>ATOM
      1 P          -6.3949   13.9532    3.4950 P.3     1  UNL1        0.0544
      2 O          -6.7247   12.6918    4.1886 O.co2   1  UNL1       -0.6615
      3 O          -5.1470   14.6309    3.9855 O.co2   1  UNL1       -0.6615
      4 O          -7.5459   14.8750    3.3522 O.co2   1  UNL1       -0.6615
      5 P          -4.7286   13.7730    0.8399 P.3     1  UNL1        0.2491
      6 O          -4.5053   13.2055    2.2027 O.co2   1  UNL1       -0.6337
      7 O          -3.7566   13.4381   -0.2359 O.co2   1  UNL1       -0.6337
      8 O          -6.0104   13.5127    1.9562 O.3     1  UNL1       -0.0930
      9 O          -5.4048   13.5312   -0.6211 O.3     1  UNL1       -0.2057
     10 C          -5.8520   12.2476   -1.0106 C.3     1  UNL1        0.1232
     11 C          -5.5579   12.1457   -2.4786 C.3     1  UNL1        0.1214
     12 O          -4.2008   11.7004   -2.5731 O.3     1  UNL1       -0.3453
     13 C          -6.4280   11.0830   -3.2039 C.3     1  UNL1        0.1593
     14 O          -6.6843   11.5190   -4.5700 O.3     1  UNL1       -0.2421
     15 P          -7.7361   12.8264   -4.8876 P.3     1  UNL1       -0.0004
     16 O          -8.1367   13.1978   -3.5078 O.co2   1  UNL1       -0.6646
     17 O          -6.8453   13.7992   -5.5702 O.co2   1  UNL1       -0.6646
     18 O          -8.8077   12.2929   -5.7825 O.co2   1  UNL1       -0.6646
     19 C          -5.4985    9.8758   -3.1721 C.3     1  UNL1        0.1329
     20 O          -5.8654    8.9151   -4.1871 O.3     1  UNL1       -0.3845
     21 C          -4.2088   10.6443   -3.5214 C.3     1  UNL1        0.1668
     22 N          -2.9285    9.9375   -3.2922 N.ar    1  UNL1       -0.2855
     23 C          -2.8645    8.6788   -2.7487 C.ar    1  UNL1        0.1004
     24 N          -1.6557    8.2203   -2.6116 N.ar    1  UNL1       -0.2306
     25 C          -0.8093    9.2627   -3.1080 C.ar    1  UNL1        0.1473
     26 C           0.6406    9.3664   -3.2451 C.ar    1  UNL1        0.1472
     27 N           1.4807    8.4198   -2.7833 N.pl3   1  UNL1       -0.3413
     28 N           1.1335   10.5052   -3.7994 N.ar    1  UNL1       -0.2188
     29 C           0.2602   11.4573   -4.1592 C.ar    1  UNL1        0.1205
     30 N          -1.0920   11.5007   -4.0813 N.ar    1  UNL1       -0.2159
     31 C          -1.5866   10.3342   -3.5342 C.ar    1  UNL1        0.1674
     32 H          -5.1081   11.6971   -0.4347 H       1  UNL1        0.0631
     33 H          -6.8494   11.8616   -0.8005 H       1  UNL1        0.0631
     34 H          -5.6717   13.1187   -2.9565 H       1  UNL1        0.0650
     35 H          -7.3423   10.7540   -2.7103 H       1  UNL1        0.0694
     36 H          -6.0897    9.7566   -2.2642 H       1  UNL1        0.0667
     37 H          -5.0519    9.9629   -3.4078 H       1  UNL1        0.0866
     38 H          -3.7415    8.1183   -2.4603 H       1  UNL1        0.1030
     39 H           0.7123   12.3414   -4.5839 H       1  UNL1        0.1048
     40 H           1.5701    7.5412   -3.2733 H       1  UNL1        0.1438
     41 H           2.0211    8.5888   -1.9469 H       1  UNL1        0.1438
     42 H          -5.4081    8.0868   -4.0244 H       1  UNL1        0.2101
@<TRIPOS>BOND
     1     1     2    1
     2     1     3    1
     3     1     4    1
     4     1     8    1
     5     5     6    1
     6     5     7    1
     7     5     8    1
     8     5     9    1
     9     9    10    1
    10    10    11    1
    11    11    12    1
    12    11    13    1
    13    12    21    1
    14    13    14    1
    15    13    19    1
    16    14    15    1
    17    15    16    1
    18    15    17    1
    19    15    18    1
    20    19    20    1
    21    19    21    1
    22    21    22    1
    23    22    23   ar
    24    22    31   ar
    25    23    24   ar
    26    24    25   ar
    27    25    26   ar
    28    25    31   ar
    29    26    27    1
    30    26    28   ar
    31    28    29   ar
    32    29    30   ar
    33    30    31   ar
    34    32    10    1
    35    33    10    1
    36    11    34    1
    37    13    35    1
    38    19    36    1
    39    21    37    1
    40    38    23    1
    41    39    29    1
    42    40    27    1
    43    41    27    1
    44    42    20    1
@<TRIPOS>SUBSTRUCTURE
     1 UNL1        1 TEMP              0 ****  ****    0 ROOT

########## Name:	15	1768.94  0.565656
@<TRIPOS>MOLECULE
af2_protein.mol215	
 42 44 1 0 0
SMALL
GASTEIGER


@<TRIPOS>ATOM
      1 P          -1.9496    7.9497   -4.6085 P.3     1  UNL1        0.0544
      2 O          -2.0935    7.3288   -5.9407 O.co2   1  UNL1       -0.6615
      3 O          -0.6901    8.7468   -4.4209 O.co2   1  UNL1       -0.6615
      4 O          -2.2324    7.0260   -3.4852 O.co2   1  UNL1       -0.6615
      5 P          -3.6249   10.3481   -3.4685 P.3     1  UNL1        0.2491
      6 O          -2.3066   10.9771   -3.1596 O.co2   1  UNL1       -0.6337
      7 O          -4.5103    9.9637   -2.3359 O.co2   1  UNL1       -0.6337
      8 O          -3.1365    9.0877   -4.5314 O.3     1  UNL1       -0.0930
      9 O          -4.6037   11.2857   -4.3704 O.3     1  UNL1       -0.2057
     10 C          -4.8042   12.6476   -4.0473 C.3     1  UNL1        0.1232
     11 C          -5.9035   12.6628   -3.0261 C.3     1  UNL1        0.1214
     12 O          -5.2507   12.7175   -1.7533 O.3     1  UNL1       -0.3453
     13 C          -6.8067   13.9229   -3.1190 C.3     1  UNL1        0.1593
     14 O          -8.1664   13.5726   -2.7311 O.3     1  UNL1       -0.2421
     15 P          -9.0705   12.4425   -3.6378 P.3     1  UNL1       -0.0004
     16 O         -10.3477   13.1804   -3.8009 O.co2   1  UNL1       -0.6646
     17 O          -8.2612   12.2995   -4.8749 O.co2   1  UNL1       -0.6646
     18 O          -9.1122   11.1903   -2.8230 O.co2   1  UNL1       -0.6646
     19 C          -6.1502   14.8279   -2.0835 C.3     1  UNL1        0.1329
     20 O          -7.0674   15.8511   -1.6368 O.3     1  UNL1       -0.3845
     21 C          -5.9198   13.7338   -1.0225 C.3     1  UNL1        0.1668
     22 N          -4.9908   14.0615    0.0824 N.ar    1  UNL1       -0.2855
     23 C          -3.8967   14.8728   -0.0860 C.ar    1  UNL1        0.1004
     24 N          -3.1890   15.0408    0.9916 N.ar    1  UNL1       -0.2306
     25 C          -3.8607   14.2722    1.9952 C.ar    1  UNL1        0.1473
     26 C          -3.5857   14.0574    3.4130 C.ar    1  UNL1        0.1472
     27 N          -2.4806   14.5365    4.0165 N.pl3   1  UNL1       -0.3413
     28 N          -4.4597   13.2808    4.1058 N.ar    1  UNL1       -0.2188
     29 C          -5.4952   12.7514    3.4378 C.ar    1  UNL1        0.1205
     30 N          -5.8628   12.8554    2.1377 N.ar    1  UNL1       -0.2159
     31 C          -4.9811   13.6596    1.4445 C.ar    1  UNL1        0.1674
     32 H          -3.8649   12.9730   -3.5999 H       1  UNL1        0.0631
     33 H          -5.0631   13.2934   -4.8863 H       1  UNL1        0.0631
     34 H          -6.5062   11.7580   -3.1043 H       1  UNL1        0.0650
     35 H          -6.7758   14.3654   -4.1146 H       1  UNL1        0.0694
     36 H          -5.2276   15.2514   -2.4802 H       1  UNL1        0.0667
     37 H          -5.7389   14.3778   -1.8830 H       1  UNL1        0.0866
     38 H          -3.6456   15.3316   -1.0310 H       1  UNL1        0.1030
     39 H          -6.1481   12.1366    4.0395 H       1  UNL1        0.1048
     40 H          -2.4063   15.5218    4.2260 H       1  UNL1        0.1438
     41 H          -1.7262   13.9105    4.2594 H       1  UNL1        0.1438
     42 H          -6.8350   16.1229   -0.7459 H       1  UNL1        0.2101
@<TRIPOS>BOND
     1     1     2    1
     2     1     3    1
     3     1     4    1
     4     1     8    1
     5     5     6    1
     6     5     7    1
     7     5     8    1
     8     5     9    1
     9     9    10    1
    10    10    11    1
    11    11    12    1
    12    11    13    1
    13    12    21    1
    14    13    14    1
    15    13    19    1
    16    14    15    1
    17    15    16    1
    18    15    17    1
    19    15    18    1
    20    19    20    1
    21    19    21    1
    22    21    22    1
    23    22    23   ar
    24    22    31   ar
    25    23    24   ar
    26    24    25   ar
    27    25    26   ar
    28    25    31   ar
    29    26    27    1
    30    26    28   ar
    31    28    29   ar
    32    29    30   ar
    33    30    31   ar
    34    32    10    1
    35    33    10    1
    36    11    34    1
    37    13    35    1
    38    19    36    1
    39    21    37    1
    40    38    23    1
    41    39    29    1
    42    40    27    1
    43    41    27    1
    44    42    20    1
@<TRIPOS>SUBSTRUCTURE
     1 UNL1        1 TEMP              0 ****  ****    0 ROOT

########## Name:	16	1786.63  0.589123
@<TRIPOS>MOLECULE
af2_protein.mol216	
 42 44 1 0 0
SMALL
GASTEIGER


@<TRIPOS>ATOM
      1 P          -1.2906    7.3459   -2.5822 P.3     1  UNL1        0.0544
      2 O          -1.9085    6.7741   -1.3689 O.co2   1  UNL1       -0.6615
      3 O          -1.8662    6.8431   -3.8756 O.co2   1  UNL1       -0.6615
      4 O           0.1907    7.3403   -2.5575 O.co2   1  UNL1       -0.6615
      5 P          -2.3747   10.0869   -3.6641 P.3     1  UNL1        0.2491
      6 O          -3.1854   10.0141   -4.9157 O.co2   1  UNL1       -0.6337
      7 O          -0.9265   10.4105   -3.7749 O.co2   1  UNL1       -0.6337
      8 O          -1.7094    8.9379   -2.5714 O.3     1  UNL1       -0.0930
      9 O          -3.6011   10.7706   -2.8401 O.3     1  UNL1       -0.2057
     10 C          -4.1559   12.0034   -3.2546 C.3     1  UNL1        0.1232
     11 C          -5.3153   12.2539   -2.3356 C.3     1  UNL1        0.1214
     12 O          -4.7414   12.5587   -1.0601 O.3     1  UNL1       -0.3453
     13 C          -6.1670   13.4855   -2.7477 C.3     1  UNL1        0.1593
     14 O          -7.5595   13.2521   -2.3891 O.3     1  UNL1       -0.2421
     15 P          -8.4440   11.9771   -3.1024 P.3     1  UNL1       -0.0004
     16 O          -9.6853   12.6898   -3.4941 O.co2   1  UNL1       -0.6646
     17 O          -7.5682   11.5676   -4.2298 O.co2   1  UNL1       -0.6646
     18 O          -8.5731   10.9201   -2.0536 O.co2   1  UNL1       -0.6646
     19 C          -5.5453   14.5724   -1.8792 C.3     1  UNL1        0.1329
     20 O          -6.4526   15.6852   -1.7167 O.3     1  UNL1       -0.3845
     21 C          -5.4191   13.7187   -0.6020 C.3     1  UNL1        0.1668
     22 N          -4.5497   14.2498    0.4719 N.ar    1  UNL1       -0.2855
     23 C          -3.6973   15.3081    0.2793 C.ar    1  UNL1        0.1004
     24 N          -3.0043   15.6303    1.3310 N.ar    1  UNL1       -0.2306
     25 C          -3.4201   14.7058    2.3418 C.ar    1  UNL1        0.1473
     26 C          -3.0365   14.5456    3.7414 C.ar    1  UNL1        0.1472
     27 N          -2.0567   15.2739    4.3112 N.pl3   1  UNL1       -0.3413
     28 N          -3.6604   13.5679    4.4498 N.ar    1  UNL1       -0.2188
     29 C          -4.5634   12.8089    3.8115 C.ar    1  UNL1        0.1205
     30 N          -5.0041   12.8372    2.5304 N.ar    1  UNL1       -0.2159
     31 C          -4.3795   13.8436    1.8221 C.ar    1  UNL1        0.1674
     32 H          -3.2356   12.3952   -2.8213 H       1  UNL1        0.0631
     33 H          -4.3397   12.4656   -4.2244 H       1  UNL1        0.0631
     34 H          -5.9429   11.3654   -2.2661 H       1  UNL1        0.0650
     35 H          -6.0590   13.7102   -3.8088 H       1  UNL1        0.0694
     36 H          -4.5730   14.8898   -2.2561 H       1  UNL1        0.0667
     37 H          -5.4413   14.3994   -1.4530 H       1  UNL1        0.0866
     38 H          -3.6100   15.8279   -0.6635 H       1  UNL1        0.1030
     39 H          -5.0171   12.0437    4.4238 H       1  UNL1        0.1048
     40 H          -2.2173   16.2440    4.5418 H       1  UNL1        0.1438
     41 H          -1.1613   14.8498    4.5075 H       1  UNL1        0.1438
     42 H          -6.2889   16.1112   -0.8721 H       1  UNL1        0.2101
@<TRIPOS>BOND
     1     1     2    1
     2     1     3    1
     3     1     4    1
     4     1     8    1
     5     5     6    1
     6     5     7    1
     7     5     8    1
     8     5     9    1
     9     9    10    1
    10    10    11    1
    11    11    12    1
    12    11    13    1
    13    12    21    1
    14    13    14    1
    15    13    19    1
    16    14    15    1
    17    15    16    1
    18    15    17    1
    19    15    18    1
    20    19    20    1
    21    19    21    1
    22    21    22    1
    23    22    23   ar
    24    22    31   ar
    25    23    24   ar
    26    24    25   ar
    27    25    26   ar
    28    25    31   ar
    29    26    27    1
    30    26    28   ar
    31    28    29   ar
    32    29    30   ar
    33    30    31   ar
    34    32    10    1
    35    33    10    1
    36    11    34    1
    37    13    35    1
    38    19    36    1
    39    21    37    1
    40    38    23    1
    41    39    29    1
    42    40    27    1
    43    41    27    1
    44    42    20    1
@<TRIPOS>SUBSTRUCTURE
     1 UNL1        1 TEMP              0 ****  ****    0 ROOT

########## Name:	17	1826.3  0.512775
@<TRIPOS>MOLECULE
af2_protein.mol217	
 42 44 1 0 0
SMALL
GASTEIGER


@<TRIPOS>ATOM
      1 P          -1.1023    7.2878   -2.1665 P.3     1  UNL1        0.0544
      2 O           0.2892    7.7643   -2.2997 O.co2   1  UNL1       -0.6615
      3 O          -1.4415    6.7105   -0.8217 O.co2   1  UNL1       -0.6615
      4 O          -1.5563    6.4461   -3.2980 O.co2   1  UNL1       -0.6615
      5 P          -3.1565    9.3545   -3.3360 P.3     1  UNL1        0.2491
      6 O          -3.8533    8.0983   -3.7428 O.co2   1  UNL1       -0.6337
      7 O          -2.5080   10.1796   -4.3911 O.co2   1  UNL1       -0.6337
      8 O          -2.0329    8.6434   -2.2458 O.3     1  UNL1       -0.0930
      9 O          -4.2560   10.0753   -2.3758 O.3     1  UNL1       -0.2057
     10 C          -5.5690   10.3261   -2.8369 C.3     1  UNL1        0.1232
     11 C          -5.8747   11.7394   -2.4361 C.3     1  UNL1        0.1214
     12 O          -6.7961   12.2304   -3.4154 O.3     1  UNL1       -0.3453
     13 C          -6.5878   11.8440   -1.0603 C.3     1  UNL1        0.1593
     14 O          -6.1845   13.0779   -0.3994 O.3     1  UNL1       -0.2421
     15 P          -5.7715   13.0875    1.2577 P.3     1  UNL1       -0.0004
     16 O          -6.6401   14.1853    1.7506 O.co2   1  UNL1       -0.6646
     17 O          -6.1657   11.7246    1.6967 O.co2   1  UNL1       -0.6646
     18 O          -4.2954   13.3134    1.3193 O.co2   1  UNL1       -0.6646
     19 C          -8.0479   11.8983   -1.4932 C.3     1  UNL1        0.1329
     20 O          -8.8729   12.4727   -0.4553 O.3     1  UNL1       -0.3845
     21 C          -7.8377   12.8566   -2.6821 C.3     1  UNL1        0.1668
     22 N          -8.9503   12.9702   -3.6518 N.ar    1  UNL1       -0.2855
     23 C         -10.0199   13.8079   -3.4569 C.ar    1  UNL1        0.1004
     24 N         -10.9058   13.7683   -4.4077 N.ar    1  UNL1       -0.2306
     25 C         -10.3963   12.8131   -5.3444 C.ar    1  UNL1        0.1473
     26 C         -10.9045   12.3282   -6.6244 C.ar    1  UNL1        0.1472
     27 N         -12.1086   12.6896   -7.1087 N.pl3   1  UNL1       -0.3413
     28 N         -10.1424   11.4242   -7.2944 N.ar    1  UNL1       -0.2188
     29 C          -8.9946   11.0267   -6.7259 C.ar    1  UNL1        0.1205
     30 N          -8.4125   11.3791   -5.5541 N.ar    1  UNL1       -0.2159
     31 C          -9.1828   12.3104   -4.8877 C.ar    1  UNL1        0.1674
     32 H          -6.3141    9.9618   -3.5442 H       1  UNL1        0.0631
     33 H          -5.5428    9.6842   -1.9565 H       1  UNL1        0.0631
     34 H          -4.9646   12.3393   -2.4377 H       1  UNL1        0.0650
     35 H          -7.4854   11.4224   -0.6080 H       1  UNL1        0.0694
     36 H          -8.3185   10.8638   -1.7044 H       1  UNL1        0.0667
     37 H          -7.8850   13.6576   -1.9444 H       1  UNL1        0.0866
     38 H         -10.1171   14.4442   -2.5897 H       1  UNL1        0.1030
     39 H          -8.4387   10.3009   -7.3009 H       1  UNL1        0.1048
     40 H         -12.2430   13.6157   -7.4888 H       1  UNL1        0.1438
     41 H         -12.8771   12.0345   -7.0916 H       1  UNL1        0.1438
     42 H          -9.6948   12.7888   -0.8377 H       1  UNL1        0.2101
@<TRIPOS>BOND
     1     1     2    1
     2     1     3    1
     3     1     4    1
     4     1     8    1
     5     5     6    1
     6     5     7    1
     7     5     8    1
     8     5     9    1
     9     9    10    1
    10    10    11    1
    11    11    12    1
    12    11    13    1
    13    12    21    1
    14    13    14    1
    15    13    19    1
    16    14    15    1
    17    15    16    1
    18    15    17    1
    19    15    18    1
    20    19    20    1
    21    19    21    1
    22    21    22    1
    23    22    23   ar
    24    22    31   ar
    25    23    24   ar
    26    24    25   ar
    27    25    26   ar
    28    25    31   ar
    29    26    27    1
    30    26    28   ar
    31    28    29   ar
    32    29    30   ar
    33    30    31   ar
    34    32    10    1
    35    33    10    1
    36    11    34    1
    37    13    35    1
    38    19    36    1
    39    21    37    1
    40    38    23    1
    41    39    29    1
    42    40    27    1
    43    41    27    1
    44    42    20    1
@<TRIPOS>SUBSTRUCTURE
     1 UNL1        1 TEMP              0 ****  ****    0 ROOT

########## Name:	18	1805.51  0.573347
@<TRIPOS>MOLECULE
af2_protein.mol218	
 42 44 1 0 0
SMALL
GASTEIGER


@<TRIPOS>ATOM
      1 P          -6.7843   14.4500    2.0118 P.3     1  UNL1        0.0544
      2 O          -7.2820   13.4313    2.9581 O.co2   1  UNL1       -0.6615
      3 O          -5.6693   15.3063    2.5413 O.co2   1  UNL1       -0.6615
      4 O          -7.8587   15.2276    1.3516 O.co2   1  UNL1       -0.6615
      5 P          -4.9622   13.8962   -0.4847 P.3     1  UNL1        0.2491
      6 O          -3.9008   14.3566    0.4591 O.co2   1  UNL1       -0.6337
      7 O          -5.4704   14.8547   -1.5031 O.co2   1  UNL1       -0.6337
      8 O          -6.0687   13.5992    0.7977 O.3     1  UNL1       -0.0930
      9 O          -4.8379   12.4674   -1.2550 O.3     1  UNL1       -0.2057
     10 C          -3.6460   12.1046   -1.9237 C.3     1  UNL1        0.1232
     11 C          -4.0744   11.2373   -3.0709 C.3     1  UNL1        0.1214
     12 O          -2.9162   10.4814   -3.4402 O.3     1  UNL1       -0.3453
     13 C          -5.1730   10.2101   -2.6835 C.3     1  UNL1        0.1593
     14 O          -6.0446    9.9800   -3.8278 O.3     1  UNL1       -0.2421
     15 P          -7.3155   11.0619   -4.1902 P.3     1  UNL1       -0.0004
     16 O          -6.5505   12.3067   -4.4500 O.co2   1  UNL1       -0.6646
     17 O          -7.9369   10.4407   -5.3875 O.co2   1  UNL1       -0.6646
     18 O          -8.2189   11.0593   -2.9995 O.co2   1  UNL1       -0.6646
     19 C          -4.3261    8.9812   -2.3755 C.3     1  UNL1        0.1329
     20 O          -5.1174    7.7750   -2.4583 O.3     1  UNL1       -0.3845
     21 C          -3.3585    9.1385   -3.5650 C.3     1  UNL1        0.1668
     22 N          -2.1139    8.3382   -3.5225 N.ar    1  UNL1       -0.2855
     23 C          -0.9869    8.7563   -2.8600 C.ar    1  UNL1        0.1004
     24 N           0.0132    7.9294   -2.9390 N.ar    1  UNL1       -0.2306
     25 C          -0.4729    6.8402   -3.7307 C.ar    1  UNL1        0.1473
     26 C           0.1478    5.5934   -4.1688 C.ar    1  UNL1        0.1472
     27 N           1.4440    5.3094   -3.9362 N.pl3   1  UNL1       -0.3413
     28 N          -0.6180    4.7397   -4.8983 N.ar    1  UNL1       -0.2188
     29 C          -1.8755    5.1102   -5.1814 C.ar    1  UNL1        0.1205
     30 N          -2.5698    6.2270   -4.8545 N.ar    1  UNL1       -0.2159
     31 C          -1.7921    7.0809   -4.0991 C.ar    1  UNL1        0.1674
     32 H          -2.7136   11.7360   -1.4958 H       1  UNL1        0.0631
     33 H          -4.4244   12.1289   -1.1612 H       1  UNL1        0.0631
     34 H          -4.4082   11.8519   -3.9069 H       1  UNL1        0.0650
     35 H          -5.7325   10.2126   -1.7481 H       1  UNL1        0.0694
     36 H          -4.2916    9.3782   -1.3610 H       1  UNL1        0.0667
     37 H          -3.3171    9.9555   -2.8447 H       1  UNL1        0.0866
     38 H          -0.9355    9.6903   -2.3202 H       1  UNL1        0.1030
     39 H          -2.4299    4.3955   -5.7716 H       1  UNL1        0.1048
     40 H           1.7454    5.0485   -3.0082 H       1  UNL1        0.1438
     41 H           2.1146    5.3575   -4.6899 H       1  UNL1        0.1438
     42 H          -4.5797    7.0211   -2.2051 H       1  UNL1        0.2101
@<TRIPOS>BOND
     1     1     2    1
     2     1     3    1
     3     1     4    1
     4     1     8    1
     5     5     6    1
     6     5     7    1
     7     5     8    1
     8     5     9    1
     9     9    10    1
    10    10    11    1
    11    11    12    1
    12    11    13    1
    13    12    21    1
    14    13    14    1
    15    13    19    1
    16    14    15    1
    17    15    16    1
    18    15    17    1
    19    15    18    1
    20    19    20    1
    21    19    21    1
    22    21    22    1
    23    22    23   ar
    24    22    31   ar
    25    23    24   ar
    26    24    25   ar
    27    25    26   ar
    28    25    31   ar
    29    26    27    1
    30    26    28   ar
    31    28    29   ar
    32    29    30   ar
    33    30    31   ar
    34    32    10    1
    35    33    10    1
    36    11    34    1
    37    13    35    1
    38    19    36    1
    39    21    37    1
    40    38    23    1
    41    39    29    1
    42    40    27    1
    43    41    27    1
    44    42    20    1
@<TRIPOS>SUBSTRUCTURE
     1 UNL1        1 TEMP              0 ****  ****    0 ROOT

########## Name:	19	1752.66  0.625031
@<TRIPOS>MOLECULE
af2_protein.mol219	
 42 44 1 0 0
SMALL
GASTEIGER


@<TRIPOS>ATOM
      1 P          -6.2269   14.0210    3.3124 P.3     1  UNL1        0.0544
      2 O          -6.9738   15.2113    3.7665 O.co2   1  UNL1       -0.6615
      3 O          -7.0580   12.7784    3.1633 O.co2   1  UNL1       -0.6615
      4 O          -4.9598   13.7951    4.0461 O.co2   1  UNL1       -0.6615
      5 P          -4.8327   13.6267    0.5269 P.3     1  UNL1        0.2491
      6 O          -5.4330   12.6101    1.4408 O.co2   1  UNL1       -0.6337
      7 O          -3.5161   14.2175    0.8900 O.co2   1  UNL1       -0.6337
      8 O          -5.7686   14.3612    1.7684 O.3     1  UNL1       -0.0930
      9 O          -5.9321   12.9691   -0.4777 O.3     1  UNL1       -0.2057
     10 C          -5.8737   11.5986   -0.8209 C.3     1  UNL1        0.1232
     11 C          -5.5064   11.5618   -2.2754 C.3     1  UNL1        0.1214
     12 O          -4.1056   11.2697   -2.3151 O.3     1  UNL1       -0.3453
     13 C          -6.2214   10.4266   -3.0578 C.3     1  UNL1        0.1593
     14 O          -6.4643   10.8619   -4.4266 O.3     1  UNL1       -0.2421
     15 P          -7.2296   12.3547   -4.7465 P.3     1  UNL1       -0.0004
     16 O          -6.1338   13.3006   -4.4193 O.co2   1  UNL1       -0.6646
     17 O          -7.5597   12.2456   -6.1904 O.co2   1  UNL1       -0.6646
     18 O          -8.4429   12.3977   -3.8749 O.co2   1  UNL1       -0.6646
     19 C          -5.1670    9.3278   -3.0040 C.3     1  UNL1        0.1329
     20 O          -5.3810    8.3553   -4.0511 O.3     1  UNL1       -0.3845
     21 C          -3.9557   10.2402   -3.2806 C.3     1  UNL1        0.1668
     22 N          -2.6166    9.6726   -3.0051 N.ar    1  UNL1       -0.2855
     23 C          -2.4326    8.5435   -2.2469 C.ar    1  UNL1        0.1004
     24 N          -1.1876    8.1977   -2.1025 N.ar    1  UNL1       -0.2306
     25 C          -0.4465    9.1826   -2.8304 C.ar    1  UNL1        0.1473
     26 C           0.9834    9.3528   -3.0719 C.ar    1  UNL1        0.1472
     27 N           1.9132    8.5648   -2.4977 N.pl3   1  UNL1       -0.3413
     28 N           1.3626   10.3986   -3.8528 N.ar    1  UNL1       -0.2188
     29 C           0.4042   11.2087   -4.3258 C.ar    1  UNL1        0.1205
     30 N          -0.9422   11.1781   -4.1751 N.ar    1  UNL1       -0.2159
     31 C          -1.3212   10.1038   -3.3962 C.ar    1  UNL1        0.1674
     32 H          -5.0996   11.1202   -0.2209 H       1  UNL1        0.0631
     33 H          -6.8307   11.1014   -0.6634 H       1  UNL1        0.0631
     34 H          -5.7056   12.5268   -2.7413 H       1  UNL1        0.0650
     35 H          -7.1520   10.3201   -2.5005 H       1  UNL1        0.0694
     36 H          -4.9310    8.8559   -2.0503 H       1  UNL1        0.0667
     37 H          -4.7390    9.5384   -2.9942 H       1  UNL1        0.0866
     38 H          -3.2503    7.9905   -1.8087 H       1  UNL1        0.1030
     39 H           0.7681   12.0261   -4.9307 H       1  UNL1        0.1048
     40 H           2.0447    7.6182   -2.8244 H       1  UNL1        0.1438
     41 H           2.4787    8.9207   -1.7404 H       1  UNL1        0.1438
     42 H          -4.5350    8.0880   -4.4177 H       1  UNL1        0.2101
@<TRIPOS>BOND
     1     1     2    1
     2     1     3    1
     3     1     4    1
     4     1     8    1
     5     5     6    1
     6     5     7    1
     7     5     8    1
     8     5     9    1
     9     9    10    1
    10    10    11    1
    11    11    12    1
    12    11    13    1
    13    12    21    1
    14    13    14    1
    15    13    19    1
    16    14    15    1
    17    15    16    1
    18    15    17    1
    19    15    18    1
    20    19    20    1
    21    19    21    1
    22    21    22    1
    23    22    23   ar
    24    22    31   ar
    25    23    24   ar
    26    24    25   ar
    27    25    26   ar
    28    25    31   ar
    29    26    27    1
    30    26    28   ar
    31    28    29   ar
    32    29    30   ar
    33    30    31   ar
    34    32    10    1
    35    33    10    1
    36    11    34    1
    37    13    35    1
    38    19    36    1
    39    21    37    1
    40    38    23    1
    41    39    29    1
    42    40    27    1
    43    41    27    1
    44    42    20    1
@<TRIPOS>SUBSTRUCTURE
     1 UNL1        1 TEMP              0 ****  ****    0 ROOT

########## Name:	0	2745.87  0.61131
@<TRIPOS>MOLECULE
af2_protein.mol20	
 42 44 1 0 0
SMALL
GASTEIGER


@<TRIPOS>ATOM
      1 P          -7.7358   20.6800    1.4307 P.3     1  UNL1        0.0544
      2 O          -8.7774   21.0214    2.4204 O.co2   1  UNL1       -0.6615
      3 O          -6.3384   20.6365    1.9806 O.co2   1  UNL1       -0.6615
      4 O          -7.8444   21.4393    0.1632 O.co2   1  UNL1       -0.6615
      5 P          -7.1807   17.8079    0.2899 P.3     1  UNL1        0.2491
      6 O          -5.8365   17.8574    0.9376 O.co2   1  UNL1       -0.6337
      7 O          -7.2523   17.8034   -1.1965 O.co2   1  UNL1       -0.6337
      8 O          -8.0312   19.1149    1.0147 O.3     1  UNL1       -0.0930
      9 O          -7.9246   16.4743    0.8545 O.3     1  UNL1       -0.2057
     10 C          -7.2740   15.2190    0.8396 C.3     1  UNL1        0.1232
     11 C          -6.8872   14.9814   -0.5907 C.3     1  UNL1        0.1214
     12 O          -5.4857   15.2629   -0.6661 O.3     1  UNL1       -0.3453
     13 C          -7.0707   13.5050   -1.0363 C.3     1  UNL1        0.1593
     14 O          -7.4337   13.4674   -2.4466 O.3     1  UNL1       -0.2421
     15 P          -8.8924   14.1677   -2.9927 P.3     1  UNL1       -0.0004
     16 O          -9.4267   13.0680   -3.8340 O.co2   1  UNL1       -0.6646
     17 O          -9.6291   14.4089   -1.7259 O.co2   1  UNL1       -0.6646
     18 O          -8.5125   15.4320   -3.6935 O.co2   1  UNL1       -0.6646
     19 C          -5.6669   12.9567   -0.8101 C.3     1  UNL1        0.1329
     20 O          -5.4496   11.7580   -1.5871 O.3     1  UNL1       -0.3845
     21 C          -4.9141   14.1761   -1.3779 C.3     1  UNL1        0.1668
     22 N          -3.4669   14.2645   -1.0797 N.ar    1  UNL1       -0.2855
     23 C          -2.5045   14.2056   -2.0564 C.ar    1  UNL1        0.1004
     24 N          -1.2869   14.2890   -1.6082 N.ar    1  UNL1       -0.2306
     25 C          -1.4263   14.4175   -0.1893 C.ar    1  UNL1        0.1473
     26 C          -0.4460   14.5675    0.8823 C.ar    1  UNL1        0.1472
     27 N           0.8818   14.5058    0.6624 N.pl3   1  UNL1       -0.3413
     28 N          -0.9230   14.7016    2.1479 N.ar    1  UNL1       -0.2188
     29 C          -2.2518   14.6648    2.3252 C.ar    1  UNL1        0.1205
     30 N          -3.2651   14.5219    1.4367 N.ar    1  UNL1       -0.2159
     31 C          -2.7743   14.4043    0.1522 C.ar    1  UNL1        0.1674
     32 H          -6.3880   15.2424    1.4742 H       1  UNL1        0.0631
     33 H          -7.9566   14.4394    1.1777 H       1  UNL1        0.0631
     34 H          -7.4437   15.6480   -1.2496 H       1  UNL1        0.0650
     35 H          -7.8063   12.9888   -0.4195 H       1  UNL1        0.0694
     36 H          -5.4546   12.8019    0.2477 H       1  UNL1        0.0667
     37 H          -5.0948   14.2775   -2.4481 H       1  UNL1        0.0866
     38 H          -2.7382   14.0994   -3.1055 H       1  UNL1        0.1030
     39 H          -2.5688   14.7664    3.3525 H       1  UNL1        0.1048
     40 H           1.3568   15.2786    0.2184 H       1  UNL1        0.1438
     41 H           1.4022   13.6864    0.9415 H       1  UNL1        0.1438
     42 H          -4.5182   11.6836   -1.8075 H       1  UNL1        0.2101
@<TRIPOS>BOND
     1     1     2    1
     2     1     3    1
     3     1     4    1
     4     1     8    1
     5     5     6    1
     6     5     7    1
     7     5     8    1
     8     5     9    1
     9     9    10    1
    10    10    11    1
    11    11    12    1
    12    11    13    1
    13    12    21    1
    14    13    14    1
    15    13    19    1
    16    14    15    1
    17    15    16    1
    18    15    17    1
    19    15    18    1
    20    19    20    1
    21    19    21    1
    22    21    22    1
    23    22    23   ar
    24    22    31   ar
    25    23    24   ar
    26    24    25   ar
    27    25    26   ar
    28    25    31   ar
    29    26    27    1
    30    26    28   ar
    31    28    29   ar
    32    29    30   ar
    33    30    31   ar
    34    32    10    1
    35    33    10    1
    36    11    34    1
    37    13    35    1
    38    19    36    1
    39    21    37    1
    40    38    23    1
    41    39    29    1
    42    40    27    1
    43    41    27    1
    44    42    20    1
@<TRIPOS>SUBSTRUCTURE
     1 UNL1        1 TEMP              0 ****  ****    0 ROOT

########## Name:	1	2333.76  0.637815
@<TRIPOS>MOLECULE
af2_protein.mol21	
 42 44 1 0 0
SMALL
GASTEIGER


@<TRIPOS>ATOM
      1 P          -4.6669   11.4353   -5.3003 P.3     1  UNL1        0.0544
      2 O          -4.1633   11.9466   -6.5910 O.co2   1  UNL1       -0.6615
      3 O          -3.6096   11.2223   -4.2546 O.co2   1  UNL1       -0.6615
      4 O          -5.5993   10.2918   -5.4336 O.co2   1  UNL1       -0.6615
      5 P          -6.1990   13.1284   -3.1451 P.3     1  UNL1        0.2491
      6 O          -5.0544   12.8993   -2.2141 O.co2   1  UNL1       -0.6337
      7 O          -7.5129   12.5104   -2.8194 O.co2   1  UNL1       -0.6337
      8 O          -5.5789   12.6563   -4.6778 O.3     1  UNL1       -0.0930
      9 O          -6.3926   14.7406   -3.2625 O.3     1  UNL1       -0.2057
     10 C          -6.4712   15.5485   -2.1046 C.3     1  UNL1        0.1232
     11 C          -7.6054   14.9882   -1.2975 C.3     1  UNL1        0.1214
     12 O          -6.9970   14.2320   -0.2452 O.3     1  UNL1       -0.3453
     13 C          -8.4710   16.0836   -0.6171 C.3     1  UNL1        0.1593
     14 O          -9.8525   15.6281   -0.5382 O.3     1  UNL1       -0.2421
     15 P         -10.7534   15.3192   -1.9558 P.3     1  UNL1       -0.0004
     16 O         -12.0068   16.0524   -1.6496 O.co2   1  UNL1       -0.6646
     17 O          -9.9082   15.9275   -3.0147 O.co2   1  UNL1       -0.6646
     18 O         -10.8510   13.8324   -2.0733 O.co2   1  UNL1       -0.6646
     19 C          -7.8280   16.1464    0.7631 C.3     1  UNL1        0.1329
     20 O          -8.7331   16.7271    1.7282 O.3     1  UNL1       -0.3845
     21 C          -7.6645   14.6244    0.9444 C.3     1  UNL1        0.1668
     22 N          -6.7670   14.1751    2.0324 N.ar    1  UNL1       -0.2855
     23 C          -7.2160   13.4627    3.1162 C.ar    1  UNL1        0.1004
     24 N          -6.2883   13.1629    3.9762 N.ar    1  UNL1       -0.2306
     25 C          -5.0884   13.7224    3.4316 C.ar    1  UNL1        0.1473
     26 C          -3.7057   13.7214    3.9005 C.ar    1  UNL1        0.1472
     27 N          -3.3470   13.2130    5.0954 N.pl3   1  UNL1       -0.3413
     28 N          -2.7803   14.3275    3.1108 N.ar    1  UNL1       -0.2188
     29 C          -3.2031   14.8996    1.9739 C.ar    1  UNL1        0.1205
     30 N          -4.4399   14.9857    1.4268 N.ar    1  UNL1       -0.2159
     31 C          -5.3712   14.3530    2.2248 C.ar    1  UNL1        0.1674
     32 H          -5.5402   15.4955   -1.5402 H       1  UNL1        0.0631
     33 H          -6.6830   16.5810   -2.3821 H       1  UNL1        0.0631
     34 H          -8.2287   14.3428   -1.9164 H       1  UNL1        0.0650
     35 H          -8.3930   17.0373   -1.1389 H       1  UNL1        0.0694
     36 H          -6.8673   16.6609    0.7429 H       1  UNL1        0.0667
     37 H          -8.6369   14.1379    1.0202 H       1  UNL1        0.0866
     38 H          -8.2495   13.1761    3.2433 H       1  UNL1        0.1030
     39 H          -2.4240   15.3730    1.3949 H       1  UNL1        0.1048
     40 H          -3.3169   12.2126    5.2303 H       1  UNL1        0.1438
     41 H          -3.1084   13.8325    5.8566 H       1  UNL1        0.1438
     42 H          -8.5470   16.3675    2.5986 H       1  UNL1        0.2101
@<TRIPOS>BOND
     1     1     2    1
     2     1     3    1
     3     1     4    1
     4     1     8    1
     5     5     6    1
     6     5     7    1
     7     5     8    1
     8     5     9    1
     9     9    10    1
    10    10    11    1
    11    11    12    1
    12    11    13    1
    13    12    21    1
    14    13    14    1
    15    13    19    1
    16    14    15    1
    17    15    16    1
    18    15    17    1
    19    15    18    1
    20    19    20    1
    21    19    21    1
    22    21    22    1
    23    22    23   ar
    24    22    31   ar
    25    23    24   ar
    26    24    25   ar
    27    25    26   ar
    28    25    31   ar
    29    26    27    1
    30    26    28   ar
    31    28    29   ar
    32    29    30   ar
    33    30    31   ar
    34    32    10    1
    35    33    10    1
    36    11    34    1
    37    13    35    1
    38    19    36    1
    39    21    37    1
    40    38    23    1
    41    39    29    1
    42    40    27    1
    43    41    27    1
    44    42    20    1
@<TRIPOS>SUBSTRUCTURE
     1 UNL1        1 TEMP              0 ****  ****    0 ROOT

########## Name:	2	3006.43  0.639414
@<TRIPOS>MOLECULE
af2_protein.mol22	
 42 44 1 0 0
SMALL
GASTEIGER


@<TRIPOS>ATOM
      1 P          -6.5116   21.6422    1.6045 P.3     1  UNL1        0.0544
      2 O          -7.7728   22.0530    2.2540 O.co2   1  UNL1       -0.6615
      3 O          -5.4075   21.2751    2.5547 O.co2   1  UNL1       -0.6615
      4 O          -6.0744   22.5519    0.5200 O.co2   1  UNL1       -0.6615
      5 P          -5.9952   18.8711    0.2214 P.3     1  UNL1        0.2491
      6 O          -4.9613   18.5931    1.2620 O.co2   1  UNL1       -0.6337
      7 O          -5.5524   19.0546   -1.1874 O.co2   1  UNL1       -0.6337
      8 O          -6.8564   20.2193    0.8519 O.3     1  UNL1       -0.0930
      9 O          -7.0617   17.6424    0.2799 O.3     1  UNL1       -0.2057
     10 C          -6.6228   16.2985    0.2562 C.3     1  UNL1        0.1232
     11 C          -5.8050   16.1627   -0.9946 C.3     1  UNL1        0.1214
     12 O          -4.4382   16.1852   -0.5696 O.3     1  UNL1       -0.3453
     13 C          -6.0235   14.8089   -1.7237 C.3     1  UNL1        0.1593
     14 O          -5.8822   15.0053   -3.1602 O.3     1  UNL1       -0.2421
     15 P          -6.9553   16.0241   -4.0129 P.3     1  UNL1       -0.0004
     16 O          -7.3129   15.1496   -5.1574 O.co2   1  UNL1       -0.6646
     17 O          -8.0417   16.2479   -3.0253 O.co2   1  UNL1       -0.6646
     18 O          -6.1898   17.2689   -4.3262 O.co2   1  UNL1       -0.6646
     19 C          -4.8710   13.9862   -1.1604 C.3     1  UNL1        0.1329
     20 O          -4.5656   12.8676   -2.0226 O.3     1  UNL1       -0.3845
     21 C          -3.8106   15.1022   -1.2388 C.3     1  UNL1        0.1668
     22 N          -2.5559   14.8840   -0.4843 N.ar    1  UNL1       -0.2855
     23 C          -1.3344   14.7621   -1.0981 C.ar    1  UNL1        0.1004
     24 N          -0.3452   14.5642   -0.2780 N.ar    1  UNL1       -0.2306
     25 C          -0.9440   14.5488    1.0222 C.ar    1  UNL1        0.1473
     26 C          -0.3801   14.3870    2.3593 C.ar    1  UNL1        0.1472
     27 N           0.9210   14.1054    2.5668 N.pl3   1  UNL1       -0.3413
     28 N          -1.2393   14.4580    3.4099 N.ar    1  UNL1       -0.2188
     29 C          -2.5402   14.6486    3.1452 C.ar    1  UNL1        0.1205
     30 N          -3.1965   14.8021    1.9697 N.ar    1  UNL1       -0.2159
     31 C          -2.3157   14.7468    0.9087 C.ar    1  UNL1        0.1674
     32 H          -6.0139   16.0819    1.1341 H       1  UNL1        0.0631
     33 H          -7.4792   15.6254    0.2190 H       1  UNL1        0.0631
     34 H          -6.0054   16.9939   -1.6707 H       1  UNL1        0.0650
     35 H          -6.9890   14.3699   -1.4726 H       1  UNL1        0.0694
     36 H          -5.0577   13.6715   -0.1337 H       1  UNL1        0.0667
     37 H          -3.5976   15.3603   -2.2761 H       1  UNL1        0.0866
     38 H          -1.2061   14.8251   -2.1686 H       1  UNL1        0.1030
     39 H          -3.1734   14.6861    4.0193 H       1  UNL1        0.1048
     40 H           1.6199   14.8229    2.4380 H       1  UNL1        0.1438
     41 H           1.1974   13.1765    2.8510 H       1  UNL1        0.1438
     42 H          -3.6345   12.6475   -1.9440 H       1  UNL1        0.2101
@<TRIPOS>BOND
     1     1     2    1
     2     1     3    1
     3     1     4    1
     4     1     8    1
     5     5     6    1
     6     5     7    1
     7     5     8    1
     8     5     9    1
     9     9    10    1
    10    10    11    1
    11    11    12    1
    12    11    13    1
    13    12    21    1
    14    13    14    1
    15    13    19    1
    16    14    15    1
    17    15    16    1
    18    15    17    1
    19    15    18    1
    20    19    20    1
    21    19    21    1
    22    21    22    1
    23    22    23   ar
    24    22    31   ar
    25    23    24   ar
    26    24    25   ar
    27    25    26   ar
    28    25    31   ar
    29    26    27    1
    30    26    28   ar
    31    28    29   ar
    32    29    30   ar
    33    30    31   ar
    34    32    10    1
    35    33    10    1
    36    11    34    1
    37    13    35    1
    38    19    36    1
    39    21    37    1
    40    38    23    1
    41    39    29    1
    42    40    27    1
    43    41    27    1
    44    42    20    1
@<TRIPOS>SUBSTRUCTURE
     1 UNL1        1 TEMP              0 ****  ****    0 ROOT

########## Name:	3	2928.6  0.647607
@<TRIPOS>MOLECULE
af2_protein.mol23	
 42 44 1 0 0
SMALL
GASTEIGER


@<TRIPOS>ATOM
      1 P          -8.3171   12.6371   -4.8055 P.3     1  UNL1        0.0544
      2 O          -9.6301   12.4538   -5.4561 O.co2   1  UNL1       -0.6615
      3 O          -7.5315   13.8182   -5.3002 O.co2   1  UNL1       -0.6615
      4 O          -7.5154   11.3943   -4.7173 O.co2   1  UNL1       -0.6615
      5 P          -7.8612   13.7759   -1.9151 P.3     1  UNL1        0.2491
      6 O          -7.1529   14.9370   -2.5310 O.co2   1  UNL1       -0.6337
      7 O          -7.0740   12.8230   -1.0865 O.co2   1  UNL1       -0.6337
      8 O          -8.6595   13.0331   -3.2447 O.3     1  UNL1       -0.0930
      9 O          -9.0656   14.3891   -1.0074 O.3     1  UNL1       -0.2057
     10 C          -8.8179   15.4236   -0.0758 C.3     1  UNL1        0.1232
     11 C          -7.7506   14.8971    0.8382 C.3     1  UNL1        0.1214
     12 O          -6.5348   15.5251    0.4183 O.3     1  UNL1       -0.3453
     13 C          -7.9679   15.2938    2.3240 C.3     1  UNL1        0.1593
     14 O          -7.4623   14.2340    3.1862 O.3     1  UNL1       -0.2421
     15 P          -8.1540   12.6729    3.1498 P.3     1  UNL1       -0.0004
     16 O          -8.3415   12.4220    4.6005 O.co2   1  UNL1       -0.6646
     17 O          -9.4049   12.8916    2.3797 O.co2   1  UNL1       -0.6646
     18 O          -7.1760   11.7990    2.4332 O.co2   1  UNL1       -0.6646
     19 C          -7.1045   16.5459    2.4196 C.3     1  UNL1        0.1329
     20 O          -6.7546   16.8279    3.7929 O.3     1  UNL1       -0.3845
     21 C          -5.9164   15.9962    1.6058 C.3     1  UNL1        0.1668
     22 N          -4.9193   16.9825    1.1323 N.ar    1  UNL1       -0.2855
     23 C          -3.6142   16.9784    1.5569 C.ar    1  UNL1        0.1004
     24 N          -2.8854   17.9246    1.0432 N.ar    1  UNL1       -0.2306
     25 C          -3.7742   18.6469    0.1843 C.ar    1  UNL1        0.1473
     26 C          -3.5732   19.8017   -0.6862 C.ar    1  UNL1        0.1472
     27 N          -2.4093   20.4786   -0.7334 N.pl3   1  UNL1       -0.3413
     28 N          -4.6411   20.2286   -1.4103 N.ar    1  UNL1       -0.2188
     29 C          -5.8034   19.5768   -1.2588 C.ar    1  UNL1        0.1205
     30 N          -6.1330   18.5114   -0.4889 N.ar    1  UNL1       -0.2159
     31 C          -5.0397   18.0723    0.2297 C.ar    1  UNL1        0.1674
     32 H          -8.4712   16.3213   -0.5878 H       1  UNL1        0.0631
     33 H          -9.7229   15.6415    0.4912 H       1  UNL1        0.0631
     34 H          -7.6703   13.8142    0.7431 H       1  UNL1        0.0650
     35 H          -9.0154   15.5129    2.5310 H       1  UNL1        0.0694
     36 H          -7.5716   17.4020    1.9330 H       1  UNL1        0.0667
     37 H          -5.4290   15.1792    2.1378 H       1  UNL1        0.0866
     38 H          -3.2265   16.2526    2.2565 H       1  UNL1        0.1030
     39 H          -6.6163   19.9684   -1.8522 H       1  UNL1        0.1048
     40 H          -1.6101   20.0773   -1.2027 H       1  UNL1        0.1438
     41 H          -2.3359   21.3875   -0.2991 H       1  UNL1        0.1438
     42 H          -5.9074   17.2785    3.8215 H       1  UNL1        0.2101
@<TRIPOS>BOND
     1     1     2    1
     2     1     3    1
     3     1     4    1
     4     1     8    1
     5     5     6    1
     6     5     7    1
     7     5     8    1
     8     5     9    1
     9     9    10    1
    10    10    11    1
    11    11    12    1
    12    11    13    1
    13    12    21    1
    14    13    14    1
    15    13    19    1
    16    14    15    1
    17    15    16    1
    18    15    17    1
    19    15    18    1
    20    19    20    1
    21    19    21    1
    22    21    22    1
    23    22    23   ar
    24    22    31   ar
    25    23    24   ar
    26    24    25   ar
    27    25    26   ar
    28    25    31   ar
    29    26    27    1
    30    26    28   ar
    31    28    29   ar
    32    29    30   ar
    33    30    31   ar
    34    32    10    1
    35    33    10    1
    36    11    34    1
    37    13    35    1
    38    19    36    1
    39    21    37    1
    40    38    23    1
    41    39    29    1
    42    40    27    1
    43    41    27    1
    44    42    20    1
@<TRIPOS>SUBSTRUCTURE
     1 UNL1        1 TEMP              0 ****  ****    0 ROOT

########## Name:	4	2744.54  0.633537
@<TRIPOS>MOLECULE
af2_protein.mol24	
 42 44 1 0 0
SMALL
GASTEIGER


@<TRIPOS>ATOM
      1 P          -4.1187   21.9036   -0.4092 P.3     1  UNL1        0.0544
      2 O          -3.8785   22.7418   -1.6012 O.co2   1  UNL1       -0.6615
      3 O          -5.3297   22.2866    0.3931 O.co2   1  UNL1       -0.6615
      4 O          -2.9108   21.6840    0.4199 O.co2   1  UNL1       -0.6615
      5 P          -5.2861   18.9889   -0.4391 P.3     1  UNL1        0.2491
      6 O          -6.4734   19.5032    0.3059 O.co2   1  UNL1       -0.6337
      7 O          -4.3699   18.0423    0.2528 O.co2   1  UNL1       -0.6337
      8 O          -4.5058   20.4158   -0.9978 O.3     1  UNL1       -0.0930
      9 O          -5.8520   18.2780   -1.7900 O.3     1  UNL1       -0.2057
     10 C          -6.8993   17.3300   -1.7272 C.3     1  UNL1        0.1232
     11 C          -6.4210   16.2613   -0.7887 C.3     1  UNL1        0.1214
     12 O          -7.0975   16.5005    0.4499 O.3     1  UNL1       -0.3453
     13 C          -6.8138   14.8288   -1.2426 C.3     1  UNL1        0.1593
     14 O          -5.7791   13.8903   -0.8295 O.3     1  UNL1       -0.2421
     15 P          -4.1904   14.0144   -1.4439 P.3     1  UNL1       -0.0004
     16 O          -3.9372   12.6058   -1.8367 O.co2   1  UNL1       -0.6646
     17 O          -4.3541   14.9654   -2.5728 O.co2   1  UNL1       -0.6646
     18 O          -3.3554   14.5678   -0.3347 O.co2   1  UNL1       -0.6646
     19 C          -8.1010   14.6173   -0.4549 C.3     1  UNL1        0.1329
     20 O          -8.4024   13.2100   -0.3269 O.3     1  UNL1       -0.3845
     21 C          -7.5983   15.2384    0.8633 C.3     1  UNL1        0.1668
     22 N          -8.6235   15.5669    1.8793 N.ar    1  UNL1       -0.2855
     23 C          -8.6753   14.9514    3.1050 C.ar    1  UNL1        0.1004
     24 N          -9.6491   15.3595    3.8635 N.ar    1  UNL1       -0.2306
     25 C         -10.3307   16.3489    3.0852 C.ar    1  UNL1        0.1473
     26 C         -11.4896   17.1909    3.3676 C.ar    1  UNL1        0.1472
     27 N         -12.2143   17.0697    4.4969 N.pl3   1  UNL1       -0.3413
     28 N         -11.8690   18.0710    2.4040 N.ar    1  UNL1       -0.2188
     29 C         -11.1700   18.0889    1.2596 C.ar    1  UNL1        0.1205
     30 N         -10.0946   17.3667    0.8616 N.ar    1  UNL1       -0.2159
     31 C          -9.7041   16.4880    1.8516 C.ar    1  UNL1        0.1674
     32 H          -7.8087   17.7931   -1.3443 H       1  UNL1        0.0631
     33 H          -7.0814   16.9072   -2.7151 H       1  UNL1        0.0631
     34 H          -5.3420   16.3326   -0.6511 H       1  UNL1        0.0650
     35 H          -6.9899   14.7833   -2.3172 H       1  UNL1        0.0694
     36 H          -8.9352   15.1768   -0.8780 H       1  UNL1        0.0667
     37 H          -6.8043   14.6313    1.2981 H       1  UNL1        0.0866
     38 H          -7.9688   14.1945    3.4124 H       1  UNL1        0.1030
     39 H         -11.5252   18.8013    0.5298 H       1  UNL1        0.1048
     40 H         -11.8448   17.4101    5.3731 H       1  UNL1        0.1438
     41 H         -13.1270   16.6384    4.4673 H       1  UNL1        0.1438
     42 H          -8.8880   13.0591    0.4874 H       1  UNL1        0.2101
@<TRIPOS>BOND
     1     1     2    1
     2     1     3    1
     3     1     4    1
     4     1     8    1
     5     5     6    1
     6     5     7    1
     7     5     8    1
     8     5     9    1
     9     9    10    1
    10    10    11    1
    11    11    12    1
    12    11    13    1
    13    12    21    1
    14    13    14    1
    15    13    19    1
    16    14    15    1
    17    15    16    1
    18    15    17    1
    19    15    18    1
    20    19    20    1
    21    19    21    1
    22    21    22    1
    23    22    23   ar
    24    22    31   ar
    25    23    24   ar
    26    24    25   ar
    27    25    26   ar
    28    25    31   ar
    29    26    27    1
    30    26    28   ar
    31    28    29   ar
    32    29    30   ar
    33    30    31   ar
    34    32    10    1
    35    33    10    1
    36    11    34    1
    37    13    35    1
    38    19    36    1
    39    21    37    1
    40    38    23    1
    41    39    29    1
    42    40    27    1
    43    41    27    1
    44    42    20    1
@<TRIPOS>SUBSTRUCTURE
     1 UNL1        1 TEMP              0 ****  ****    0 ROOT

########## Name:	5	2739.96  0.637752
@<TRIPOS>MOLECULE
af2_protein.mol25	
 42 44 1 0 0
SMALL
GASTEIGER


@<TRIPOS>ATOM
      1 P          -7.1609   21.1808    1.0091 P.3     1  UNL1        0.0544
      2 O          -8.3511   21.6689    1.7345 O.co2   1  UNL1       -0.6615
      3 O          -5.9297   21.0269    1.8560 O.co2   1  UNL1       -0.6615
      4 O          -6.9096   21.8863   -0.2692 O.co2   1  UNL1       -0.6615
      5 P          -6.6777   18.2174    0.0906 P.3     1  UNL1        0.2491
      6 O          -5.5094   18.1658    1.0189 O.co2   1  UNL1       -0.6337
      7 O          -6.4234   18.1497   -1.3740 O.co2   1  UNL1       -0.6337
      8 O          -7.5224   19.6342    0.5765 O.3     1  UNL1       -0.0930
      9 O          -7.6635   16.9912    0.5089 O.3     1  UNL1       -0.2057
     10 C          -7.1619   15.6790    0.6695 C.3     1  UNL1        0.1232
     11 C          -6.5000   15.3374   -0.6332 C.3     1  UNL1        0.1214
     12 O          -5.0941   15.4765   -0.4029 O.3     1  UNL1       -0.3453
     13 C          -6.7371   13.8665   -1.0720 C.3     1  UNL1        0.1593
     14 O          -6.7858   13.7979   -2.5263 O.3     1  UNL1       -0.2421
     15 P          -8.0079   14.6109   -3.3994 P.3     1  UNL1       -0.0004
     16 O          -8.4592   13.5303   -4.3109 O.co2   1  UNL1       -0.6646
     17 O          -8.9732   14.9827   -2.3337 O.co2   1  UNL1       -0.6646
     18 O          -7.3527   15.7974   -4.0293 O.co2   1  UNL1       -0.6646
     19 C          -5.4825   13.1949   -0.5268 C.3     1  UNL1        0.1329
     20 O          -5.2291   11.9453   -1.2065 O.3     1  UNL1       -0.3845
     21 C          -4.4993   14.3066   -0.9433 C.3     1  UNL1        0.1668
     22 N          -3.1509   14.2670   -0.3338 N.ar    1  UNL1       -0.2855
     23 C          -2.0105   14.0682   -1.0711 C.ar    1  UNL1        0.1004
     24 N          -0.9181   14.0532   -0.3663 N.ar    1  UNL1       -0.2306
     25 C          -1.3491   14.2616    0.9828 C.ar    1  UNL1        0.1473
     26 C          -0.6158   14.3656    2.2411 C.ar    1  UNL1        0.1472
     27 N           0.7138   14.1640    2.3227 N.pl3   1  UNL1       -0.3413
     28 N          -1.3403   14.6054    3.3657 N.ar    1  UNL1       -0.2188
     29 C          -2.6721   14.7071    3.2448 C.ar    1  UNL1        0.1205
     30 N          -3.4765   14.6222    2.1576 N.ar    1  UNL1       -0.2159
     31 C          -2.7327   14.3965    1.0172 C.ar    1  UNL1        0.1674
     32 H          -6.4383   15.6456    1.4840 H       1  UNL1        0.0631
     33 H          -7.9804   14.9868    0.8668 H       1  UNL1        0.0631
     34 H          -6.8256   16.0233   -1.4153 H       1  UNL1        0.0650
     35 H          -7.6399   13.4546   -0.6212 H       1  UNL1        0.0694
     36 H          -5.5236   13.0703    0.5552 H       1  UNL1        0.0667
     37 H          -4.4305   14.3744   -2.0290 H       1  UNL1        0.0866
     38 H          -2.0197   13.9358   -2.1430 H       1  UNL1        0.1030
     39 H          -3.1928   14.8877    4.1735 H       1  UNL1        0.1048
     40 H           1.3532   14.8647    1.9762 H       1  UNL1        0.1438
     41 H           1.0712   13.3118    2.7303 H       1  UNL1        0.1438
     42 H          -4.2853   11.7698   -1.2130 H       1  UNL1        0.2101
@<TRIPOS>BOND
     1     1     2    1
     2     1     3    1
     3     1     4    1
     4     1     8    1
     5     5     6    1
     6     5     7    1
     7     5     8    1
     8     5     9    1
     9     9    10    1
    10    10    11    1
    11    11    12    1
    12    11    13    1
    13    12    21    1
    14    13    14    1
    15    13    19    1
    16    14    15    1
    17    15    16    1
    18    15    17    1
    19    15    18    1
    20    19    20    1
    21    19    21    1
    22    21    22    1
    23    22    23   ar
    24    22    31   ar
    25    23    24   ar
    26    24    25   ar
    27    25    26   ar
    28    25    31   ar
    29    26    27    1
    30    26    28   ar
    31    28    29   ar
    32    29    30   ar
    33    30    31   ar
    34    32    10    1
    35    33    10    1
    36    11    34    1
    37    13    35    1
    38    19    36    1
    39    21    37    1
    40    38    23    1
    41    39    29    1
    42    40    27    1
    43    41    27    1
    44    42    20    1
@<TRIPOS>SUBSTRUCTURE
     1 UNL1        1 TEMP              0 ****  ****    0 ROOT

########## Name:	6	3109.76  0.652914
@<TRIPOS>MOLECULE
af2_protein.mol26	
 42 44 1 0 0
SMALL
GASTEIGER


@<TRIPOS>ATOM
      1 P          -0.6036   16.5625    2.1122 P.3     1  UNL1        0.0544
      2 O           0.7260   16.7520    1.4981 O.co2   1  UNL1       -0.6615
      3 O          -1.5316   17.7357    1.9731 O.co2   1  UNL1       -0.6615
      4 O          -0.5537   16.0134    3.4873 O.co2   1  UNL1       -0.6615
      5 P          -2.9262   14.8171    0.9216 P.3     1  UNL1        0.2491
      6 O          -3.7308   16.0660    0.7736 O.co2   1  UNL1       -0.6337
      7 O          -3.3787   13.7939    1.9027 O.co2   1  UNL1       -0.6337
      8 O          -1.3319   15.3912    1.2136 O.3     1  UNL1       -0.0930
      9 O          -2.8491   14.1315   -0.5530 O.3     1  UNL1       -0.2057
     10 C          -4.0185   13.9298   -1.3219 C.3     1  UNL1        0.1232
     11 C          -4.9319   13.1086   -0.4599 C.3     1  UNL1        0.1214
     12 O          -5.9063   14.0223    0.0546 O.3     1  UNL1       -0.3453
     13 C          -5.7115   12.0252   -1.2541 C.3     1  UNL1        0.1593
     14 O          -5.9275   10.8634   -0.4024 O.3     1  UNL1       -0.2421
     15 P          -4.6072    9.9590    0.1939 P.3     1  UNL1       -0.0004
     16 O          -5.0503    8.5802   -0.1301 O.co2   1  UNL1       -0.6646
     17 O          -3.4739   10.4661   -0.6211 O.co2   1  UNL1       -0.6646
     18 O          -4.4824   10.3066    1.6421 O.co2   1  UNL1       -0.6646
     19 C          -7.0183   12.7563   -1.5368 C.3     1  UNL1        0.1329
     20 O          -8.0789   11.8213   -1.8345 O.3     1  UNL1       -0.3845
     21 C          -7.1633   13.3926   -0.1403 C.3     1  UNL1        0.1668
     22 N          -8.1470   14.4906   -0.0066 N.ar    1  UNL1       -0.2855
     23 C          -9.2627   14.3928    0.7867 C.ar    1  UNL1        0.1004
     24 N         -10.0184   15.4506    0.7733 N.ar    1  UNL1       -0.2306
     25 C          -9.3592   16.3612   -0.1131 C.ar    1  UNL1        0.1473
     26 C          -9.6824   17.7191   -0.5414 C.ar    1  UNL1        0.1472
     27 N         -10.8276   18.3357   -0.1900 N.pl3   1  UNL1       -0.3413
     28 N          -8.8086   18.3305   -1.3839 N.ar    1  UNL1       -0.2188
     29 C          -7.7285   17.6397   -1.7777 C.ar    1  UNL1        0.1205
     30 N          -7.3135   16.3862   -1.4733 N.ar    1  UNL1       -0.2159
     31 C          -8.1960   15.7782   -0.6037 C.ar    1  UNL1        0.1674
     32 H          -4.4828   14.8854   -1.5654 H       1  UNL1        0.0631
     33 H          -3.7770   13.3869   -2.2356 H       1  UNL1        0.0631
     34 H          -4.3731   12.6511    0.3565 H       1  UNL1        0.0650
     35 H          -5.1960   11.7557   -2.1759 H       1  UNL1        0.0694
     36 H          -6.9050   13.5077   -2.3182 H       1  UNL1        0.0667
     37 H          -7.3334   12.6272    0.6169 H       1  UNL1        0.0866
     38 H          -9.4927   13.5140    1.3710 H       1  UNL1        0.1030
     39 H          -7.0778   18.1745   -2.4537 H       1  UNL1        0.1048
     40 H         -10.9464   18.6822    0.7512 H       1  UNL1        0.1438
     41 H         -11.5674   18.4512   -0.8677 H       1  UNL1        0.1438
     42 H          -8.9210   12.1959   -1.5658 H       1  UNL1        0.2101
@<TRIPOS>BOND
     1     1     2    1
     2     1     3    1
     3     1     4    1
     4     1     8    1
     5     5     6    1
     6     5     7    1
     7     5     8    1
     8     5     9    1
     9     9    10    1
    10    10    11    1
    11    11    12    1
    12    11    13    1
    13    12    21    1
    14    13    14    1
    15    13    19    1
    16    14    15    1
    17    15    16    1
    18    15    17    1
    19    15    18    1
    20    19    20    1
    21    19    21    1
    22    21    22    1
    23    22    23   ar
    24    22    31   ar
    25    23    24   ar
    26    24    25   ar
    27    25    26   ar
    28    25    31   ar
    29    26    27    1
    30    26    28   ar
    31    28    29   ar
    32    29    30   ar
    33    30    31   ar
    34    32    10    1
    35    33    10    1
    36    11    34    1
    37    13    35    1
    38    19    36    1
    39    21    37    1
    40    38    23    1
    41    39    29    1
    42    40    27    1
    43    41    27    1
    44    42    20    1
@<TRIPOS>SUBSTRUCTURE
     1 UNL1        1 TEMP              0 ****  ****    0 ROOT

########## Name:	7	2871.01  0.63396
@<TRIPOS>MOLECULE
af2_protein.mol27	
 42 44 1 0 0
SMALL
GASTEIGER


@<TRIPOS>ATOM
      1 P          -9.7362   21.2997    1.7994 P.3     1  UNL1        0.0544
      2 O         -11.0769   21.6964    2.2748 O.co2   1  UNL1       -0.6615
      3 O          -8.7821   20.8887    2.8847 O.co2   1  UNL1       -0.6615
      4 O          -9.1441   22.2452    0.8245 O.co2   1  UNL1       -0.6615
      5 P          -9.0326   18.5774    0.4019 P.3     1  UNL1        0.2491
      6 O          -8.1609   18.2528    1.5697 O.co2   1  UNL1       -0.6337
      7 O          -8.3901   18.8092   -0.9202 O.co2   1  UNL1       -0.6337
      8 O          -9.9723   19.9084    0.9518 O.3     1  UNL1       -0.0930
      9 O         -10.0997   17.3562    0.2593 O.3     1  UNL1       -0.2057
     10 C          -9.6656   16.0105    0.2485 C.3     1  UNL1        0.1232
     11 C          -8.6758   15.9143   -0.8752 C.3     1  UNL1        0.1214
     12 O          -7.3849   15.9100   -0.2566 O.3     1  UNL1       -0.3453
     13 C          -8.7902   14.5902   -1.6788 C.3     1  UNL1        0.1593
     14 O          -8.4420   14.8384   -3.0714 O.3     1  UNL1       -0.2421
     15 P          -9.3776   15.8968   -4.0311 P.3     1  UNL1       -0.0004
     16 O          -9.5682   15.0681   -5.2475 O.co2   1  UNL1       -0.6646
     17 O         -10.5949   16.0927   -3.2032 O.co2   1  UNL1       -0.6646
     18 O          -8.5713   17.1460   -4.1833 O.co2   1  UNL1       -0.6646
     19 C          -7.7336   13.7379   -0.9863 C.3     1  UNL1        0.1329
     20 O          -7.3097   12.6495   -1.8369 O.3     1  UNL1       -0.3845
     21 C          -6.6700   14.8474   -0.8685 C.3     1  UNL1        0.1668
     22 N          -5.5382   14.5912    0.0506 N.ar    1  UNL1       -0.2855
     23 C          -4.2411   14.4821   -0.3844 C.ar    1  UNL1        0.1004
     24 N          -3.3815   14.2460    0.5621 N.ar    1  UNL1       -0.2306
     25 C          -4.1622   14.1875    1.7605 C.ar    1  UNL1        0.1473
     26 C          -3.7982   13.9718    3.1580 C.ar    1  UNL1        0.1472
     27 N          -2.5416   13.6721    3.5405 N.pl3   1  UNL1       -0.3413
     28 N          -4.8002   14.0109    4.0753 N.ar    1  UNL1       -0.2188
     29 C          -6.0486   14.2218    3.6328 C.ar    1  UNL1        0.1205
     30 N          -6.5275   14.4239    2.3814 N.ar    1  UNL1       -0.2159
     31 C          -5.5026   14.4007    1.4575 C.ar    1  UNL1        0.1674
     32 H          -9.1908   15.7567    1.1963 H       1  UNL1        0.0631
     33 H         -10.5095   15.3463    0.0625 H       1  UNL1        0.0631
     34 H          -8.7739   16.7715   -1.5413 H       1  UNL1        0.0650
     35 H          -9.7831   14.1502   -1.5866 H       1  UNL1        0.0694
     36 H          -8.0677   13.3870   -0.0100 H       1  UNL1        0.0667
     37 H          -6.3084   15.1419   -1.8537 H       1  UNL1        0.0866
     38 H          -3.9591   14.5836   -1.4220 H       1  UNL1        0.1030
     39 H          -6.8015   14.2321    4.4070 H       1  UNL1        0.1048
     40 H          -1.8294   14.3882    3.5413 H       1  UNL1        0.1438
     41 H          -2.3118   12.7311    3.8265 H       1  UNL1        0.1438
     42 H          -6.4003   12.4191   -1.6330 H       1  UNL1        0.2101
@<TRIPOS>BOND
     1     1     2    1
     2     1     3    1
     3     1     4    1
     4     1     8    1
     5     5     6    1
     6     5     7    1
     7     5     8    1
     8     5     9    1
     9     9    10    1
    10    10    11    1
    11    11    12    1
    12    11    13    1
    13    12    21    1
    14    13    14    1
    15    13    19    1
    16    14    15    1
    17    15    16    1
    18    15    17    1
    19    15    18    1
    20    19    20    1
    21    19    21    1
    22    21    22    1
    23    22    23   ar
    24    22    31   ar
    25    23    24   ar
    26    24    25   ar
    27    25    26   ar
    28    25    31   ar
    29    26    27    1
    30    26    28   ar
    31    28    29   ar
    32    29    30   ar
    33    30    31   ar
    34    32    10    1
    35    33    10    1
    36    11    34    1
    37    13    35    1
    38    19    36    1
    39    21    37    1
    40    38    23    1
    41    39    29    1
    42    40    27    1
    43    41    27    1
    44    42    20    1
@<TRIPOS>SUBSTRUCTURE
     1 UNL1        1 TEMP              0 ****  ****    0 ROOT

########## Name:	8	3080.41  0.644692
@<TRIPOS>MOLECULE
af2_protein.mol28	
 42 44 1 0 0
SMALL
GASTEIGER


@<TRIPOS>ATOM
      1 P         -11.0173   16.5798    4.4312 P.3     1  UNL1        0.0544
      2 O         -12.1520   15.7153    4.8135 O.co2   1  UNL1       -0.6615
      3 O          -9.7331   16.2846    5.1528 O.co2   1  UNL1       -0.6615
      4 O         -11.3515   18.0226    4.3943 O.co2   1  UNL1       -0.6615
      5 P          -9.3645   16.3435    1.7720 P.3     1  UNL1        0.2491
      6 O          -8.1689   15.9975    2.5966 O.co2   1  UNL1       -0.6337
      7 O          -9.3650   17.6332    1.0296 O.co2   1  UNL1       -0.6337
      8 O         -10.6779   16.1825    2.8701 O.3     1  UNL1       -0.0930
      9 O          -9.5696   15.1270    0.7097 O.3     1  UNL1       -0.2057
     10 C          -8.4911   14.6603   -0.0765 C.3     1  UNL1        0.1232
     11 C          -7.9820   15.8616   -0.8177 C.3     1  UNL1        0.1214
     12 O          -6.7906   16.2640   -0.1339 O.3     1  UNL1       -0.3453
     13 C          -7.5716   15.5475   -2.2823 C.3     1  UNL1        0.1593
     14 O          -7.8322   16.7122   -3.1176 O.3     1  UNL1       -0.2421
     15 P          -9.4227   17.2964   -3.3315 P.3     1  UNL1       -0.0004
     16 O          -9.4626   17.4499   -4.8070 O.co2   1  UNL1       -0.6646
     17 O         -10.2495   16.1882   -2.7891 O.co2   1  UNL1       -0.6646
     18 O          -9.5216   18.5466   -2.5184 O.co2   1  UNL1       -0.6646
     19 C          -6.0759   15.3053   -2.1194 C.3     1  UNL1        0.1329
     20 O          -5.3865   15.4681   -3.3787 O.3     1  UNL1       -0.3845
     21 C          -5.8190   16.4735   -1.1471 C.3     1  UNL1        0.1668
     22 N          -4.5281   16.4667   -0.4228 N.ar    1  UNL1       -0.2855
     23 C          -3.5744   17.4377   -0.5999 C.ar    1  UNL1        0.1004
     24 N          -2.5002   17.2633    0.1115 N.ar    1  UNL1       -0.2306
     25 C          -2.7387   16.0585    0.8468 C.ar    1  UNL1        0.1473
     26 C          -1.9359   15.3334    1.8274 C.ar    1  UNL1        0.1472
     27 N          -0.6761   15.6939    2.1402 N.pl3   1  UNL1       -0.3413
     28 N          -2.4820   14.2155    2.3746 N.ar    1  UNL1       -0.2188
     29 C          -3.7036   13.8469    1.9617 C.ar    1  UNL1        0.1205
     30 N          -4.5474   14.4099    1.0632 N.ar    1  UNL1       -0.2159
     31 C          -3.9940   15.5539    0.5250 C.ar    1  UNL1        0.1674
     32 H          -7.7085   14.2460    0.5593 H       1  UNL1        0.0631
     33 H          -8.8403   13.9055   -0.7810 H       1  UNL1        0.0631
     34 H          -8.7210   16.6625   -0.7947 H       1  UNL1        0.0650
     35 H          -8.0819   14.6616   -2.6601 H       1  UNL1        0.0694
     36 H          -5.8664   14.3388   -1.6610 H       1  UNL1        0.0667
     37 H          -5.9784   17.4309   -1.6432 H       1  UNL1        0.0866
     38 H          -3.7049   18.2736   -1.2713 H       1  UNL1        0.1030
     39 H          -4.0792   12.9465    2.4249 H       1  UNL1        0.1048
     40 H          -0.5116   16.5078    2.7152 H       1  UNL1        0.1438
     41 H           0.1040   15.1504    1.7995 H       1  UNL1        0.1438
     42 H          -4.4881   15.7648   -3.2160 H       1  UNL1        0.2101
@<TRIPOS>BOND
     1     1     2    1
     2     1     3    1
     3     1     4    1
     4     1     8    1
     5     5     6    1
     6     5     7    1
     7     5     8    1
     8     5     9    1
     9     9    10    1
    10    10    11    1
    11    11    12    1
    12    11    13    1
    13    12    21    1
    14    13    14    1
    15    13    19    1
    16    14    15    1
    17    15    16    1
    18    15    17    1
    19    15    18    1
    20    19    20    1
    21    19    21    1
    22    21    22    1
    23    22    23   ar
    24    22    31   ar
    25    23    24   ar
    26    24    25   ar
    27    25    26   ar
    28    25    31   ar
    29    26    27    1
    30    26    28   ar
    31    28    29   ar
    32    29    30   ar
    33    30    31   ar
    34    32    10    1
    35    33    10    1
    36    11    34    1
    37    13    35    1
    38    19    36    1
    39    21    37    1
    40    38    23    1
    41    39    29    1
    42    40    27    1
    43    41    27    1
    44    42    20    1
@<TRIPOS>SUBSTRUCTURE
     1 UNL1        1 TEMP              0 ****  ****    0 ROOT

########## Name:	9	2408.11  0.648253
@<TRIPOS>MOLECULE
af2_protein.mol29	
 42 44 1 0 0
SMALL
GASTEIGER


@<TRIPOS>ATOM
      1 P         -10.5914   17.7185   -2.5251 P.3     1  UNL1        0.0544
      2 O         -11.7849   18.3209   -1.8976 O.co2   1  UNL1       -0.6615
      3 O          -9.5437   18.7053   -2.9558 O.co2   1  UNL1       -0.6615
      4 O         -10.9072   16.7079   -3.5614 O.co2   1  UNL1       -0.6615
      5 P          -8.2924   16.2210   -0.9983 P.3     1  UNL1        0.2491
      6 O          -7.3574   17.2989   -1.4375 O.co2   1  UNL1       -0.6337
      7 O          -8.0991   14.8493   -1.5418 O.co2   1  UNL1       -0.6337
      8 O          -9.8495   16.8750   -1.3218 O.3     1  UNL1       -0.0930
      9 O          -8.2059   16.1583    0.6262 O.3     1  UNL1       -0.2057
     10 C          -6.9564   16.0873    1.2843 C.3     1  UNL1        0.1232
     11 C          -6.2719   14.8762    0.7219 C.3     1  UNL1        0.1214
     12 O          -5.3052   15.3736   -0.2094 O.3     1  UNL1       -0.3453
     13 C          -5.4873   14.0664    1.7900 C.3     1  UNL1        0.1593
     14 O          -5.5198   12.6517    1.4440 O.3     1  UNL1       -0.2421
     15 P          -6.9981   11.7980    1.3929 P.3     1  UNL1       -0.0004
     16 O          -6.6459   10.5918    2.1826 O.co2   1  UNL1       -0.6646
     17 O          -7.9365   12.7370    2.0588 O.co2   1  UNL1       -0.6646
     18 O          -7.3118   11.5916   -0.0537 O.co2   1  UNL1       -0.6646
     19 C          -4.0877   14.6460    1.6237 C.3     1  UNL1        0.1329
     20 O          -3.0895   13.7436    2.1502 O.3     1  UNL1       -0.3845
     21 C          -4.1003   14.6827    0.0828 C.3     1  UNL1        0.1668
     22 N          -3.0475   15.4901   -0.5736 N.ar    1  UNL1       -0.2855
     23 C          -2.0832   14.9363   -1.3782 C.ar    1  UNL1        0.1004
     24 N          -1.2356   15.7962   -1.8603 N.ar    1  UNL1       -0.2306
     25 C          -1.6577   17.0602   -1.3375 C.ar    1  UNL1        0.1473
     26 C          -1.1419   18.4149   -1.5122 C.ar    1  UNL1        0.1472
     27 N          -0.0108   18.6760   -2.1961 N.pl3   1  UNL1       -0.3413
     28 N          -1.8109   19.4208   -0.8895 N.ar    1  UNL1       -0.2188
     29 C          -2.8785   19.0979   -0.1448 C.ar    1  UNL1        0.1205
     30 N          -3.4554   17.8989    0.1120 N.ar    1  UNL1       -0.2159
     31 C          -2.7817   16.8847   -0.5377 C.ar    1  UNL1        0.1674
     32 H          -6.3695   16.9836    1.0834 H       1  UNL1        0.0631
     33 H          -7.1047   15.9694    2.3577 H       1  UNL1        0.0631
     34 H          -6.9924   14.2350    0.2140 H       1  UNL1        0.0650
     35 H          -5.8772   14.2425    2.7924 H       1  UNL1        0.0694
     36 H          -4.0050   15.6434    2.0554 H       1  UNL1        0.0667
     37 H          -4.1248   13.6731   -0.3273 H       1  UNL1        0.0866
     38 H          -2.0331   13.8789   -1.5921 H       1  UNL1        0.1030
     39 H          -3.3615   19.9380    0.3321 H       1  UNL1        0.1048
     40 H          -0.0064   18.6223   -3.2046 H       1  UNL1        0.1438
     41 H           0.8329   18.9253   -1.7001 H       1  UNL1        0.1438
     42 H          -2.2671   13.8597    1.6689 H       1  UNL1        0.2101
@<TRIPOS>BOND
     1     1     2    1
     2     1     3    1
     3     1     4    1
     4     1     8    1
     5     5     6    1
     6     5     7    1
     7     5     8    1
     8     5     9    1
     9     9    10    1
    10    10    11    1
    11    11    12    1
    12    11    13    1
    13    12    21    1
    14    13    14    1
    15    13    19    1
    16    14    15    1
    17    15    16    1
    18    15    17    1
    19    15    18    1
    20    19    20    1
    21    19    21    1
    22    21    22    1
    23    22    23   ar
    24    22    31   ar
    25    23    24   ar
    26    24    25   ar
    27    25    26   ar
    28    25    31   ar
    29    26    27    1
    30    26    28   ar
    31    28    29   ar
    32    29    30   ar
    33    30    31   ar
    34    32    10    1
    35    33    10    1
    36    11    34    1
    37    13    35    1
    38    19    36    1
    39    21    37    1
    40    38    23    1
    41    39    29    1
    42    40    27    1
    43    41    27    1
    44    42    20    1
@<TRIPOS>SUBSTRUCTURE
     1 UNL1        1 TEMP              0 ****  ****    0 ROOT

########## Name:	10	3042.31  0.577876
@<TRIPOS>MOLECULE
af2_protein.mol210	
 42 44 1 0 0
SMALL
GASTEIGER


@<TRIPOS>ATOM
      1 P          -2.9845   21.1062   -0.1211 P.3     1  UNL1        0.0544
      2 O          -2.5296   21.8683   -1.3015 O.co2   1  UNL1       -0.6615
      3 O          -4.1185   21.7384    0.6347 O.co2   1  UNL1       -0.6615
      4 O          -1.8813   20.6446    0.7534 O.co2   1  UNL1       -0.6615
      5 P          -4.7325   18.4990   -0.2011 P.3     1  UNL1        0.2491
      6 O          -5.8137   19.2543    0.4987 O.co2   1  UNL1       -0.6337
      7 O          -4.0609   17.3865    0.5239 O.co2   1  UNL1       -0.6337
      8 O          -3.6510   19.7282   -0.7268 O.3     1  UNL1       -0.0930
      9 O          -5.3826   17.9133   -1.5739 O.3     1  UNL1       -0.2057
     10 C          -6.6062   17.2051   -1.5531 C.3     1  UNL1        0.1232
     11 C          -6.3975   16.0660   -0.5989 C.3     1  UNL1        0.1214
     12 O          -7.0557   16.4488    0.6132 O.3     1  UNL1       -0.3453
     13 C          -7.0631   14.7442   -1.0701 C.3     1  UNL1        0.1593
     14 O          -6.2635   13.6130   -0.6192 O.3     1  UNL1       -0.2421
     15 P          -4.6618   13.3992   -1.1719 P.3     1  UNL1       -0.0004
     16 O          -4.6934   11.9664   -1.5572 O.co2   1  UNL1       -0.6646
     17 O          -4.5804   14.3563   -2.3046 O.co2   1  UNL1       -0.6646
     18 O          -3.7723   13.7731   -0.0305 O.co2   1  UNL1       -0.6646
     19 C          -8.3951   14.8107   -0.3328 C.3     1  UNL1        0.1329
     20 O          -8.9882   13.4981   -0.2190 O.3     1  UNL1       -0.3845
     21 C          -7.8242   15.3216    1.0048 C.3     1  UNL1        0.1668
     22 N          -8.7961   15.8630    1.9813 N.ar    1  UNL1       -0.2855
     23 C          -9.0216   15.2796    3.2030 C.ar    1  UNL1        0.1004
     24 N          -9.9169   15.8866    3.9243 N.ar    1  UNL1       -0.2306
     25 C         -10.3469   16.9916    3.1222 C.ar    1  UNL1        0.1473
     26 C         -11.3145   18.0585    3.3613 C.ar    1  UNL1        0.1472
     27 N         -12.0908   18.0983    4.4617 N.pl3   1  UNL1       -0.3413
     28 N         -11.4651   18.9924    2.3854 N.ar    1  UNL1       -0.2188
     29 C         -10.7348   18.8569    1.2687 C.ar    1  UNL1        0.1205
     30 N          -9.8195   17.9237    0.9111 N.ar    1  UNL1       -0.2159
     31 C          -9.6588   16.9891    1.9137 C.ar    1  UNL1        0.1674
     32 H          -7.4129   17.8501   -1.2046 H       1  UNL1        0.0631
     33 H          -6.8350   16.8234   -2.5481 H       1  UNL1        0.0631
     34 H          -5.3334   15.9116   -0.4198 H       1  UNL1        0.0650
     35 H          -7.2039   14.7296   -2.1508 H       1  UNL1        0.0694
     36 H          -9.0775   15.5293   -0.7867 H       1  UNL1        0.0667
     37 H          -7.1914   14.5650    1.4687 H       1  UNL1        0.0866
     38 H          -8.5009   14.3939    3.5360 H       1  UNL1        0.1030
     39 H         -10.9055   19.6231    0.5271 H       1  UNL1        0.1048
     40 H         -11.6920   18.3596    5.3521 H       1  UNL1        0.1438
     41 H         -13.0717   17.8666    4.3963 H       1  UNL1        0.1438
     42 H          -9.5251   13.4570    0.5758 H       1  UNL1        0.2101
@<TRIPOS>BOND
     1     1     2    1
     2     1     3    1
     3     1     4    1
     4     1     8    1
     5     5     6    1
     6     5     7    1
     7     5     8    1
     8     5     9    1
     9     9    10    1
    10    10    11    1
    11    11    12    1
    12    11    13    1
    13    12    21    1
    14    13    14    1
    15    13    19    1
    16    14    15    1
    17    15    16    1
    18    15    17    1
    19    15    18    1
    20    19    20    1
    21    19    21    1
    22    21    22    1
    23    22    23   ar
    24    22    31   ar
    25    23    24   ar
    26    24    25   ar
    27    25    26   ar
    28    25    31   ar
    29    26    27    1
    30    26    28   ar
    31    28    29   ar
    32    29    30   ar
    33    30    31   ar
    34    32    10    1
    35    33    10    1
    36    11    34    1
    37    13    35    1
    38    19    36    1
    39    21    37    1
    40    38    23    1
    41    39    29    1
    42    40    27    1
    43    41    27    1
    44    42    20    1
@<TRIPOS>SUBSTRUCTURE
     1 UNL1        1 TEMP              0 ****  ****    0 ROOT

########## Name:	11	2567.81  0.537982
@<TRIPOS>MOLECULE
af2_protein.mol211	
 42 44 1 0 0
SMALL
GASTEIGER


@<TRIPOS>ATOM
      1 P         -10.1030   19.3002    0.9480 P.3     1  UNL1        0.0544
      2 O         -11.3466   19.3575    1.7425 O.co2   1  UNL1       -0.6615
      3 O          -8.8517   19.6131    1.7182 O.co2   1  UNL1       -0.6615
      4 O         -10.1886   20.0135   -0.3477 O.co2   1  UNL1       -0.6615
      5 P          -8.6561   16.6728    0.0195 P.3     1  UNL1        0.2491
      6 O          -7.4952   17.0615    0.8741 O.co2   1  UNL1       -0.6337
      7 O          -8.4762   16.6587   -1.4576 O.co2   1  UNL1       -0.6337
      8 O          -9.9184   17.7140    0.5479 O.3     1  UNL1       -0.0930
      9 O          -9.1204   15.1899    0.5053 O.3     1  UNL1       -0.2057
     10 C          -8.1795   14.1434    0.6426 C.3     1  UNL1        0.1232
     11 C          -7.5131   14.0211   -0.6964 C.3     1  UNL1        0.1214
     12 O          -6.2365   14.6528   -0.5542 O.3     1  UNL1       -0.3453
     13 C          -7.2394   12.5495   -1.1108 C.3     1  UNL1        0.1593
     14 O          -7.3416   12.4282   -2.5588 O.3     1  UNL1       -0.2421
     15 P          -8.8186   12.7344   -3.3597 P.3     1  UNL1       -0.0004
     16 O          -8.9091   11.5393   -4.2350 O.co2   1  UNL1       -0.6646
     17 O          -9.7922   12.7715   -2.2387 O.co2   1  UNL1       -0.6646
     18 O          -8.6609   14.0578   -4.0360 O.co2   1  UNL1       -0.6646
     19 C          -5.8002   12.3781   -0.6400 C.3     1  UNL1        0.1329
     20 O          -5.1600   11.2796   -1.3265 O.3     1  UNL1       -0.3845
     21 C          -5.2979   13.7529   -1.1232 C.3     1  UNL1        0.1668
     22 N          -3.9907   14.2076   -0.5979 N.ar    1  UNL1       -0.2855
     23 C          -2.8965   14.4029   -1.4030 C.ar    1  UNL1        0.1004
     24 N          -1.8318   14.7931   -0.7669 N.ar    1  UNL1       -0.2306
     25 C          -2.2329   14.8734    0.6049 C.ar    1  UNL1        0.1473
     26 C          -1.5147   15.2635    1.8148 C.ar    1  UNL1        0.1472
     27 N          -0.1973   15.5454    1.8154 N.pl3   1  UNL1       -0.3413
     28 N          -2.2135   15.2636    2.9806 N.ar    1  UNL1       -0.2188
     29 C          -3.4999   14.8864    2.9415 C.ar    1  UNL1        0.1205
     30 N          -4.2816   14.4937    1.9066 N.ar    1  UNL1       -0.2159
     31 C          -3.5708   14.5131    0.7238 C.ar    1  UNL1        0.1674
     32 H          -7.4466   14.3894    1.4110 H       1  UNL1        0.0631
     33 H          -8.6883   13.2130    0.8943 H       1  UNL1        0.0631
     34 H          -8.1030   14.5266   -1.4610 H       1  UNL1        0.0650
     35 H          -7.9119   11.8585   -0.6026 H       1  UNL1        0.0694
     36 H          -5.7343   12.2768    0.4432 H       1  UNL1        0.0667
     37 H          -5.3180   13.8107   -2.2115 H       1  UNL1        0.0866
     38 H          -2.9180   14.2463   -2.4715 H       1  UNL1        0.1030
     39 H          -3.9984   14.8975    3.8995 H       1  UNL1        0.1048
     40 H           0.1330   16.4167    1.4258 H       1  UNL1        0.1438
     41 H           0.4601   14.8852    2.2053 H       1  UNL1        0.1438
     42 H          -4.2170   11.4477   -1.3902 H       1  UNL1        0.2101
@<TRIPOS>BOND
     1     1     2    1
     2     1     3    1
     3     1     4    1
     4     1     8    1
     5     5     6    1
     6     5     7    1
     7     5     8    1
     8     5     9    1
     9     9    10    1
    10    10    11    1
    11    11    12    1
    12    11    13    1
    13    12    21    1
    14    13    14    1
    15    13    19    1
    16    14    15    1
    17    15    16    1
    18    15    17    1
    19    15    18    1
    20    19    20    1
    21    19    21    1
    22    21    22    1
    23    22    23   ar
    24    22    31   ar
    25    23    24   ar
    26    24    25   ar
    27    25    26   ar
    28    25    31   ar
    29    26    27    1
    30    26    28   ar
    31    28    29   ar
    32    29    30   ar
    33    30    31   ar
    34    32    10    1
    35    33    10    1
    36    11    34    1
    37    13    35    1
    38    19    36    1
    39    21    37    1
    40    38    23    1
    41    39    29    1
    42    40    27    1
    43    41    27    1
    44    42    20    1
@<TRIPOS>SUBSTRUCTURE
     1 UNL1        1 TEMP              0 ****  ****    0 ROOT

########## Name:	12	2381.49  0.623746
@<TRIPOS>MOLECULE
af2_protein.mol212	
 42 44 1 0 0
SMALL
GASTEIGER


@<TRIPOS>ATOM
      1 P          -2.3522   10.1565   -2.2373 P.3     1  UNL1        0.0544
      2 O          -2.6602    8.8743   -2.9022 O.co2   1  UNL1       -0.6615
      3 O          -2.2128   11.3278   -3.1677 O.co2   1  UNL1       -0.6615
      4 O          -1.2599   10.0653   -1.2406 O.co2   1  UNL1       -0.6615
      5 P          -4.4006   11.9108   -0.6294 P.3     1  UNL1        0.2491
      6 O          -4.2251   12.9801   -1.6564 O.co2   1  UNL1       -0.6337
      7 O          -3.9112   12.1671    0.7523 O.co2   1  UNL1       -0.6337
      8 O          -3.6968   10.5230   -1.3611 O.3     1  UNL1       -0.0930
      9 O          -5.9927   11.5763   -0.5680 O.3     1  UNL1       -0.2057
     10 C          -6.9473   12.6110   -0.4354 C.3     1  UNL1        0.1232
     11 C          -6.5665   13.3546    0.8111 C.3     1  UNL1        0.1214
     12 O          -5.9176   14.5508    0.3672 O.3     1  UNL1       -0.3453
     13 C          -7.7915   13.7985    1.6564 C.3     1  UNL1        0.1593
     14 O          -7.4350   13.7841    3.0687 O.3     1  UNL1       -0.2421
     15 P          -7.0000   12.3268    3.8457 P.3     1  UNL1       -0.0004
     16 O          -7.8416   12.4044    5.0656 O.co2   1  UNL1       -0.6646
     17 O          -7.4134   11.2980    2.8576 O.co2   1  UNL1       -0.6646
     18 O          -5.5193   12.3829    4.0409 O.co2   1  UNL1       -0.6646
     19 C          -7.9936   15.2215    1.1498 C.3     1  UNL1        0.1329
     20 O          -8.7486   16.0053    2.1003 O.3     1  UNL1       -0.3845
     21 C          -6.5009   15.6047    1.1179 C.3     1  UNL1        0.1668
     22 N          -6.1428   16.8296    0.3678 N.ar    1  UNL1       -0.2855
     23 C          -5.6057   17.9382    0.9730 C.ar    1  UNL1        0.1004
     24 N          -5.3642   18.9230    0.1594 N.ar    1  UNL1       -0.2306
     25 C          -5.7743   18.4457   -1.1264 C.ar    1  UNL1        0.1473
     26 C          -5.7501   19.0567   -2.4523 C.ar    1  UNL1        0.1472
     27 N          -5.3802   20.3365   -2.6527 N.pl3   1  UNL1       -0.3413
     28 N          -6.1912   18.3024   -3.4933 N.ar    1  UNL1       -0.2188
     29 C          -6.6355   17.0651   -3.2282 C.ar    1  UNL1        0.1205
     30 N          -6.7250   16.3821   -2.0612 N.ar    1  UNL1       -0.2159
     31 C          -6.2590   17.1473   -1.0115 C.ar    1  UNL1        0.1674
     32 H          -6.9115   13.2742   -1.2997 H       1  UNL1        0.0631
     33 H          -7.9460   12.1878   -0.3290 H       1  UNL1        0.0631
     34 H          -5.8853   12.7562    1.4163 H       1  UNL1        0.0650
     35 H          -8.6629   13.1749    1.4570 H       1  UNL1        0.0694
     36 H          -8.4418   15.2414    0.1565 H       1  UNL1        0.0667
     37 H          -6.0883   15.6349    2.1264 H       1  UNL1        0.0866
     38 H          -5.4014   17.9879    2.0324 H       1  UNL1        0.1030
     39 H          -6.9816   16.5194   -4.0935 H       1  UNL1        0.1048
     40 H          -4.4057   20.5956   -2.5954 H       1  UNL1        0.1438
     41 H          -6.0775   21.0371   -2.8602 H       1  UNL1        0.1438
     42 H          -8.4943   16.9282    2.0281 H       1  UNL1        0.2101
@<TRIPOS>BOND
     1     1     2    1
     2     1     3    1
     3     1     4    1
     4     1     8    1
     5     5     6    1
     6     5     7    1
     7     5     8    1
     8     5     9    1
     9     9    10    1
    10    10    11    1
    11    11    12    1
    12    11    13    1
    13    12    21    1
    14    13    14    1
    15    13    19    1
    16    14    15    1
    17    15    16    1
    18    15    17    1
    19    15    18    1
    20    19    20    1
    21    19    21    1
    22    21    22    1
    23    22    23   ar
    24    22    31   ar
    25    23    24   ar
    26    24    25   ar
    27    25    26   ar
    28    25    31   ar
    29    26    27    1
    30    26    28   ar
    31    28    29   ar
    32    29    30   ar
    33    30    31   ar
    34    32    10    1
    35    33    10    1
    36    11    34    1
    37    13    35    1
    38    19    36    1
    39    21    37    1
    40    38    23    1
    41    39    29    1
    42    40    27    1
    43    41    27    1
    44    42    20    1
@<TRIPOS>SUBSTRUCTURE
     1 UNL1        1 TEMP              0 ****  ****    0 ROOT

########## Name:	13	2450.15  0.654443
@<TRIPOS>MOLECULE
af2_protein.mol213	
 42 44 1 0 0
SMALL
GASTEIGER


@<TRIPOS>ATOM
      1 P         -12.2889   18.5180    2.9507 P.3     1  UNL1        0.0544
      2 O         -13.7160   18.1980    3.1556 O.co2   1  UNL1       -0.6615
      3 O         -11.3884   18.1236    4.0866 O.co2   1  UNL1       -0.6615
      4 O         -12.0498   19.8965    2.4635 O.co2   1  UNL1       -0.6615
      5 P         -10.3199   16.9397    1.0823 P.3     1  UNL1        0.2491
      6 O          -9.5400   16.5597    2.2975 O.co2   1  UNL1       -0.6337
      7 O          -9.6867   17.8486    0.0887 O.co2   1  UNL1       -0.6337
      8 O         -11.7995   17.5417    1.7189 O.3     1  UNL1       -0.0930
      9 O         -10.7313   15.5524    0.3363 O.3     1  UNL1       -0.2057
     10 C          -9.7622   14.5593    0.0644 C.3     1  UNL1        0.1232
     11 C          -8.7009   15.2422   -0.7473 C.3     1  UNL1        0.1214
     12 O          -7.6183   15.4878    0.1564 O.3     1  UNL1       -0.3453
     13 C          -8.1368   14.3522   -1.8884 C.3     1  UNL1        0.1593
     14 O          -7.7655   15.1930   -3.0185 O.3     1  UNL1       -0.2421
     15 P          -8.9434   16.1049   -3.8538 P.3     1  UNL1       -0.0004
     16 O          -8.6115   15.7609   -5.2587 O.co2   1  UNL1       -0.6646
     17 O         -10.2158   15.5309   -3.3466 O.co2   1  UNL1       -0.6646
     18 O          -8.7421   17.5269   -3.4400 O.co2   1  UNL1       -0.6646
     19 C          -6.9074   13.7575   -1.2121 C.3     1  UNL1        0.1329
     20 O          -5.9577   13.2834   -2.1924 O.3     1  UNL1       -0.3845
     21 C          -6.4479   15.0564   -0.5209 C.3     1  UNL1        0.1668
     22 N          -5.4352   14.9196    0.5500 N.ar    1  UNL1       -0.2855
     23 C          -4.1758   15.4562    0.4512 C.ar    1  UNL1        0.1004
     24 N          -3.4185   15.2273    1.4829 N.ar    1  UNL1       -0.2306
     25 C          -4.2351   14.4612    2.3747 C.ar    1  UNL1        0.1473
     26 C          -3.9837   13.9067    3.7019 C.ar    1  UNL1        0.1472
     27 N          -2.7764   13.9710    4.2963 N.pl3   1  UNL1       -0.3413
     28 N          -5.0067   13.2445    4.3036 N.ar    1  UNL1       -0.2188
     29 C          -6.1613   13.1285    3.6312 C.ar    1  UNL1        0.1205
     30 N          -6.5270   13.5769    2.4059 N.ar    1  UNL1       -0.2159
     31 C          -5.4896   14.2635    1.8083 C.ar    1  UNL1        0.1674
     32 H          -9.3415   14.1742    0.9934 H       1  UNL1        0.0631
     33 H         -10.2087   13.7475   -0.5096 H       1  UNL1        0.0631
     34 H          -9.0782   16.1818   -1.1510 H       1  UNL1        0.0650
     35 H          -8.8465   13.5785   -2.1810 H       1  UNL1        0.0694
     36 H          -7.1720   12.9832   -0.4920 H       1  UNL1        0.0667
     37 H          -6.1334   15.7955   -1.2578 H       1  UNL1        0.0866
     38 H          -3.8431   16.0193   -0.4083 H       1  UNL1        0.1030
     39 H          -6.9319   12.5841    4.1567 H       1  UNL1        0.1048
     40 H          -2.4478   14.8458    4.6793 H       1  UNL1        0.1438
     41 H          -2.1997   13.1442    4.3588 H       1  UNL1        0.1438
     42 H          -5.0694   13.3445   -1.8335 H       1  UNL1        0.2101
@<TRIPOS>BOND
     1     1     2    1
     2     1     3    1
     3     1     4    1
     4     1     8    1
     5     5     6    1
     6     5     7    1
     7     5     8    1
     8     5     9    1
     9     9    10    1
    10    10    11    1
    11    11    12    1
    12    11    13    1
    13    12    21    1
    14    13    14    1
    15    13    19    1
    16    14    15    1
    17    15    16    1
    18    15    17    1
    19    15    18    1
    20    19    20    1
    21    19    21    1
    22    21    22    1
    23    22    23   ar
    24    22    31   ar
    25    23    24   ar
    26    24    25   ar
    27    25    26   ar
    28    25    31   ar
    29    26    27    1
    30    26    28   ar
    31    28    29   ar
    32    29    30   ar
    33    30    31   ar
    34    32    10    1
    35    33    10    1
    36    11    34    1
    37    13    35    1
    38    19    36    1
    39    21    37    1
    40    38    23    1
    41    39    29    1
    42    40    27    1
    43    41    27    1
    44    42    20    1
@<TRIPOS>SUBSTRUCTURE
     1 UNL1        1 TEMP              0 ****  ****    0 ROOT

########## Name:	14	2420.91  0.612953
@<TRIPOS>MOLECULE
af2_protein.mol214	
 42 44 1 0 0
SMALL
GASTEIGER


@<TRIPOS>ATOM
      1 P         -11.5726   12.7210   -0.7546 P.3     1  UNL1        0.0544
      2 O         -12.8483   13.4623   -0.6907 O.co2   1  UNL1       -0.6615
      3 O         -10.9459   12.6679   -2.1189 O.co2   1  UNL1       -0.6615
      4 O         -11.6116   11.4052   -0.0750 O.co2   1  UNL1       -0.6615
      5 P          -8.8011   13.7759    0.2771 P.3     1  UNL1        0.2491
      6 O          -8.3111   13.7395   -1.1328 O.co2   1  UNL1       -0.6337
      7 O          -8.2051   12.8307    1.2598 O.co2   1  UNL1       -0.6337
      8 O         -10.5063   13.6194    0.1205 O.3     1  UNL1       -0.0930
      9 O          -8.5786   15.2974    0.8117 O.3     1  UNL1       -0.2057
     10 C          -7.3311   15.9453    0.6591 C.3     1  UNL1        0.1232
     11 C          -6.3276   15.0521    1.3276 C.3     1  UNL1        0.1214
     12 O          -5.6521   14.3656    0.2686 O.3     1  UNL1       -0.3453
     13 C          -5.2423   15.8347    2.1161 C.3     1  UNL1        0.1593
     14 O          -4.8299   15.0543    3.2750 O.3     1  UNL1       -0.2421
     15 P          -5.9414   14.6775    4.5157 P.3     1  UNL1       -0.0004
     16 O          -5.1520   15.0536    5.7148 O.co2   1  UNL1       -0.6646
     17 O          -7.0858   15.5722    4.2067 O.co2   1  UNL1       -0.6646
     18 O          -6.2752   13.2299    4.3523 O.co2   1  UNL1       -0.6646
     19 C          -4.1301   15.9153    1.0774 C.3     1  UNL1        0.1329
     20 O          -2.8533   16.1636    1.7066 O.3     1  UNL1       -0.3845
     21 C          -4.2682   14.4674    0.5671 C.3     1  UNL1        0.1668
     22 N          -3.5939   14.1434   -0.7102 N.ar    1  UNL1       -0.2855
     23 C          -2.5631   13.2413   -0.7955 C.ar    1  UNL1        0.1004
     24 N          -2.0863   13.0913   -1.9957 N.ar    1  UNL1       -0.2306
     25 C          -2.8634   13.9739   -2.8121 C.ar    1  UNL1        0.1473
     26 C          -2.8398   14.2603   -4.2436 C.ar    1  UNL1        0.1472
     27 N          -1.9130   13.7390   -5.0708 N.pl3   1  UNL1       -0.3413
     28 N          -3.7562   15.1457   -4.7163 N.ar    1  UNL1       -0.2188
     29 C          -4.5984   15.7074   -3.8366 C.ar    1  UNL1        0.1205
     30 N          -4.7248   15.5461   -2.4971 N.ar    1  UNL1       -0.2159
     31 C          -3.8033   14.6327   -2.0269 C.ar    1  UNL1        0.1674
     32 H          -7.0907   16.0634   -0.3975 H       1  UNL1        0.0631
     33 H          -7.3520   16.9185    1.1496 H       1  UNL1        0.0631
     34 H          -6.8306   14.3393    1.9811 H       1  UNL1        0.0650
     35 H          -5.5931   16.8255    2.4048 H       1  UNL1        0.0694
     36 H          -4.3507   16.6456    0.2989 H       1  UNL1        0.0667
     37 H          -3.9871   13.7558    1.3435 H       1  UNL1        0.0866
     38 H          -2.1814   12.7031    0.0596 H       1  UNL1        0.1030
     39 H          -5.2956   16.4089   -4.2704 H       1  UNL1        0.1048
     40 H          -1.9658   12.7670   -5.3401 H       1  UNL1        0.1438
     41 H          -1.1652   14.3202   -5.4217 H       1  UNL1        0.1438
     42 H          -2.1537   15.7760    1.1755 H       1  UNL1        0.2101
@<TRIPOS>BOND
     1     1     2    1
     2     1     3    1
     3     1     4    1
     4     1     8    1
     5     5     6    1
     6     5     7    1
     7     5     8    1
     8     5     9    1
     9     9    10    1
    10    10    11    1
    11    11    12    1
    12    11    13    1
    13    12    21    1
    14    13    14    1
    15    13    19    1
    16    14    15    1
    17    15    16    1
    18    15    17    1
    19    15    18    1
    20    19    20    1
    21    19    21    1
    22    21    22    1
    23    22    23   ar
    24    22    31   ar
    25    23    24   ar
    26    24    25   ar
    27    25    26   ar
    28    25    31   ar
    29    26    27    1
    30    26    28   ar
    31    28    29   ar
    32    29    30   ar
    33    30    31   ar
    34    32    10    1
    35    33    10    1
    36    11    34    1
    37    13    35    1
    38    19    36    1
    39    21    37    1
    40    38    23    1
    41    39    29    1
    42    40    27    1
    43    41    27    1
    44    42    20    1
@<TRIPOS>SUBSTRUCTURE
     1 UNL1        1 TEMP              0 ****  ****    0 ROOT

########## Name:	15	2387.34  0.565656
@<TRIPOS>MOLECULE
af2_protein.mol215	
 42 44 1 0 0
SMALL
GASTEIGER


@<TRIPOS>ATOM
      1 P          -2.3623   12.5500   -5.7251 P.3     1  UNL1        0.0544
      2 O          -1.9249   13.2920   -6.9248 O.co2   1  UNL1       -0.6615
      3 O          -1.3062   12.3866   -4.6692 O.co2   1  UNL1       -0.6615
      4 O          -3.0862   11.2940   -6.0305 O.co2   1  UNL1       -0.6615
      5 P          -4.2018   13.6900   -3.4502 P.3     1  UNL1        0.2491
      6 O          -3.0547   13.5394   -2.5065 O.co2   1  UNL1       -0.6337
      7 O          -5.3996   12.8292   -3.2539 O.co2   1  UNL1       -0.6337
      8 O          -3.4793   13.5185   -5.0011 O.3     1  UNL1       -0.0930
      9 O          -4.6612   15.2505   -3.3847 O.3     1  UNL1       -0.2057
     10 C          -4.8987   15.8858   -2.1439 C.3     1  UNL1        0.1232
     11 C          -5.9391   15.0517   -1.4557 C.3     1  UNL1        0.1214
     12 O          -5.2344   14.2821   -0.4758 O.3     1  UNL1       -0.3453
     13 C          -6.9906   15.8978   -0.6872 C.3     1  UNL1        0.1593
     14 O          -8.2771   15.2153   -0.7193 O.3     1  UNL1       -0.2421
     15 P          -9.0835   14.9393   -2.1993 P.3     1  UNL1       -0.0004
     16 O         -10.4485   15.4132   -1.8607 O.co2   1  UNL1       -0.6646
     17 O          -8.3308   15.8039   -3.1434 O.co2   1  UNL1       -0.6646
     18 O          -8.9273   13.4826   -2.4951 O.co2   1  UNL1       -0.6646
     19 C          -6.3962   15.8951    0.7160 C.3     1  UNL1        0.1329
     20 O          -7.4060   16.1960    1.7048 O.3     1  UNL1       -0.3845
     21 C          -5.9830   14.4101    0.7233 C.3     1  UNL1        0.1668
     22 N          -5.0456   13.9840    1.7867 N.ar    1  UNL1       -0.2855
     23 C          -5.3910   13.0796    2.7596 C.ar    1  UNL1        0.1004
     24 N          -4.4442   12.8329    3.6158 N.ar    1  UNL1       -0.2306
     25 C          -3.3444   13.6446    3.1907 C.ar    1  UNL1        0.1473
     26 C          -1.9912   13.8133    3.7126 C.ar    1  UNL1        0.1472
     27 N          -1.5772   13.2277    4.8531 N.pl3   1  UNL1       -0.3413
     28 N          -1.1647   14.6557    3.0386 N.ar    1  UNL1       -0.2188
     29 C          -1.6538   15.2860    1.9605 C.ar    1  UNL1        0.1205
     30 N          -2.8758   15.2344    1.3771 N.ar    1  UNL1       -0.2159
     31 C          -3.7039   14.3638    2.0560 C.ar    1  UNL1        0.1674
     32 H          -3.9840   15.9175   -1.5519 H       1  UNL1        0.0631
     33 H          -5.2752   16.8956   -2.3063 H       1  UNL1        0.0631
     34 H          -6.4320   14.3938   -2.1715 H       1  UNL1        0.0650
     35 H          -7.0631   16.9082   -1.0894 H       1  UNL1        0.0694
     36 H          -5.5355   16.5590    0.7961 H       1  UNL1        0.0667
     37 H          -6.8611   13.7648    0.7012 H       1  UNL1        0.0866
     38 H          -6.3640   12.6136    2.8095 H       1  UNL1        0.1030
     39 H          -0.9535   15.9486    1.4740 H       1  UNL1        0.1048
     40 H          -1.3822   12.2368    4.8702 H       1  UNL1        0.1438
     41 H          -1.4621   13.7795    5.6911 H       1  UNL1        0.1438
     42 H          -7.1803   15.7675    2.5337 H       1  UNL1        0.2101
@<TRIPOS>BOND
     1     1     2    1
     2     1     3    1
     3     1     4    1
     4     1     8    1
     5     5     6    1
     6     5     7    1
     7     5     8    1
     8     5     9    1
     9     9    10    1
    10    10    11    1
    11    11    12    1
    12    11    13    1
    13    12    21    1
    14    13    14    1
    15    13    19    1
    16    14    15    1
    17    15    16    1
    18    15    17    1
    19    15    18    1
    20    19    20    1
    21    19    21    1
    22    21    22    1
    23    22    23   ar
    24    22    31   ar
    25    23    24   ar
    26    24    25   ar
    27    25    26   ar
    28    25    31   ar
    29    26    27    1
    30    26    28   ar
    31    28    29   ar
    32    29    30   ar
    33    30    31   ar
    34    32    10    1
    35    33    10    1
    36    11    34    1
    37    13    35    1
    38    19    36    1
    39    21    37    1
    40    38    23    1
    41    39    29    1
    42    40    27    1
    43    41    27    1
    44    42    20    1
@<TRIPOS>SUBSTRUCTURE
     1 UNL1        1 TEMP              0 ****  ****    0 ROOT

########## Name:	16	2656.51  0.589123
@<TRIPOS>MOLECULE
af2_protein.mol216	
 42 44 1 0 0
SMALL
GASTEIGER


@<TRIPOS>ATOM
      1 P          -0.2599   15.4039    1.9391 P.3     1  UNL1        0.0544
      2 O           1.0279   15.2914    1.2251 O.co2   1  UNL1       -0.6615
      3 O          -0.8904   16.7664    1.8844 O.co2   1  UNL1       -0.6615
      4 O          -0.2411   14.8200    3.3005 O.co2   1  UNL1       -0.6615
      5 P          -3.0115   14.2901    0.9156 P.3     1  UNL1        0.2491
      6 O          -3.5051   15.6973    0.8433 O.co2   1  UNL1       -0.6337
      7 O          -3.6208   13.3754    1.9188 O.co2   1  UNL1       -0.6337
      8 O          -1.3094   14.4633    1.0883 O.3     1  UNL1       -0.0930
      9 O          -3.2077   13.6475   -0.5673 O.3     1  UNL1       -0.2057
     10 C          -4.4447   13.7492   -1.2446 C.3     1  UNL1        0.1232
     11 C          -5.4613   13.1428   -0.3223 C.3     1  UNL1        0.1214
     12 O          -6.1503   14.2458    0.2757 O.3     1  UNL1       -0.3453
     13 C          -6.5319   12.2968   -1.0642 C.3     1  UNL1        0.1593
     14 O          -6.9545   11.1952   -0.2098 O.3     1  UNL1       -0.2421
     15 P          -5.8466    9.9884    0.2727 P.3     1  UNL1       -0.0004
     16 O          -6.6270    8.7628   -0.0295 O.co2   1  UNL1       -0.6646
     17 O          -4.6883   10.2365   -0.6230 O.co2   1  UNL1       -0.6646
     18 O          -5.5370   10.2558    1.7102 O.co2   1  UNL1       -0.6646
     19 C          -7.6448   13.3234   -1.2369 C.3     1  UNL1        0.1329
     20 O          -8.9160   12.6738   -1.4603 O.3     1  UNL1       -0.3845
     21 C          -7.5317   13.9362    0.1730 C.3     1  UNL1        0.1668
     22 N          -8.2140   15.2312    0.3939 N.ar    1  UNL1       -0.2855
     23 C          -9.2598   15.3771    1.2707 C.ar    1  UNL1        0.1004
     24 N          -9.7416   16.5834    1.3268 N.ar    1  UNL1       -0.2306
     25 C          -8.9519   17.3373    0.4009 C.ar    1  UNL1        0.1473
     26 C          -8.9739   18.7446    0.0126 C.ar    1  UNL1        0.1472
     27 N          -9.9109   19.6038    0.4584 N.pl3   1  UNL1       -0.3413
     28 N          -8.0441   19.1560   -0.8893 N.ar    1  UNL1       -0.2188
     29 C          -7.1908   18.2413   -1.3729 C.ar    1  UNL1        0.1205
     30 N          -7.0642   16.9171   -1.1143 N.ar    1  UNL1       -0.2159
     31 C          -7.9996   16.5103   -0.1847 C.ar    1  UNL1        0.1674
     32 H          -4.6854   14.7940   -1.4417 H       1  UNL1        0.0631
     33 H          -4.4066   13.1906   -2.1797 H       1  UNL1        0.0631
     34 H          -4.9687   12.5436    0.4435 H       1  UNL1        0.0650
     35 H          -6.1641   11.9394   -2.0259 H       1  UNL1        0.0694
     36 H          -7.4139   14.0485   -2.0172 H       1  UNL1        0.0667
     37 H          -7.8227   13.2117    0.9335 H       1  UNL1        0.0866
     38 H          -9.6484   14.5613    1.8624 H       1  UNL1        0.1030
     39 H          -6.4831   18.6262   -2.0922 H       1  UNL1        0.1048
     40 H          -9.8748   19.9420    1.4094 H       1  UNL1        0.1438
     41 H         -10.6498   19.9097   -0.1584 H       1  UNL1        0.1438
     42 H          -9.6230   13.2288   -1.1231 H       1  UNL1        0.2101
@<TRIPOS>BOND
     1     1     2    1
     2     1     3    1
     3     1     4    1
     4     1     8    1
     5     5     6    1
     6     5     7    1
     7     5     8    1
     8     5     9    1
     9     9    10    1
    10    10    11    1
    11    11    12    1
    12    11    13    1
    13    12    21    1
    14    13    14    1
    15    13    19    1
    16    14    15    1
    17    15    16    1
    18    15    17    1
    19    15    18    1
    20    19    20    1
    21    19    21    1
    22    21    22    1
    23    22    23   ar
    24    22    31   ar
    25    23    24   ar
    26    24    25   ar
    27    25    26   ar
    28    25    31   ar
    29    26    27    1
    30    26    28   ar
    31    28    29   ar
    32    29    30   ar
    33    30    31   ar
    34    32    10    1
    35    33    10    1
    36    11    34    1
    37    13    35    1
    38    19    36    1
    39    21    37    1
    40    38    23    1
    41    39    29    1
    42    40    27    1
    43    41    27    1
    44    42    20    1
@<TRIPOS>SUBSTRUCTURE
     1 UNL1        1 TEMP              0 ****  ****    0 ROOT

########## Name:	17	2351.87  0.512775
@<TRIPOS>MOLECULE
af2_protein.mol217	
 42 44 1 0 0
SMALL
GASTEIGER


@<TRIPOS>ATOM
      1 P         -10.4705   18.6997    0.5759 P.3     1  UNL1        0.0544
      2 O         -11.9355   18.6411    0.7534 O.co2   1  UNL1       -0.6615
      3 O          -9.6811   18.6351    1.8525 O.co2   1  UNL1       -0.6615
      4 O         -10.0221   19.7762   -0.3377 O.co2   1  UNL1       -0.6615
      5 P          -8.6654   16.3423   -0.4456 P.3     1  UNL1        0.2491
      6 O          -7.9966   16.3333    0.8893 O.co2   1  UNL1       -0.6337
      7 O          -7.8716   16.7573   -1.6339 O.co2   1  UNL1       -0.6337
      8 O         -10.0717   17.2986   -0.1908 O.3     1  UNL1       -0.0930
      9 O          -9.2351   14.8378   -0.6949 O.3     1  UNL1       -0.2057
     10 C          -8.4033   13.7081   -0.5179 C.3     1  UNL1        0.1232
     11 C          -7.2248   13.9288   -1.4202 C.3     1  UNL1        0.1214
     12 O          -6.1566   14.3537   -0.5673 O.3     1  UNL1       -0.3453
     13 C          -6.7437   12.6315   -2.1257 C.3     1  UNL1        0.1593
     14 O          -6.2130   12.9649   -3.4407 O.3     1  UNL1       -0.2421
     15 P          -7.2171   13.6486   -4.6411 P.3     1  UNL1       -0.0004
     16 O          -6.8790   12.7901   -5.8034 O.co2   1  UNL1       -0.6646
     17 O          -8.5768   13.4445   -4.0795 O.co2   1  UNL1       -0.6646
     18 O          -6.8369   15.0911   -4.7323 O.co2   1  UNL1       -0.6646
     19 C          -5.6380   12.1792   -1.1797 C.3     1  UNL1        0.1329
     20 O          -4.7241   11.2803   -1.8462 O.3     1  UNL1       -0.3845
     21 C          -5.0309   13.5768   -0.9465 C.3     1  UNL1        0.1668
     22 N          -4.0919   13.7149    0.1894 N.ar    1  UNL1       -0.2855
     23 C          -2.7671   14.0314    0.0209 C.ar    1  UNL1        0.1004
     24 N          -2.0920   14.0997    1.1299 N.ar    1  UNL1       -0.2306
     25 C          -3.0432   13.8020    2.1574 C.ar    1  UNL1        0.1473
     26 C          -2.9262   13.7323    3.6111 C.ar    1  UNL1        0.1472
     27 N          -1.7471   13.8643    4.2495 N.pl3   1  UNL1       -0.3413
     28 N          -4.0552   13.4514    4.3136 N.ar    1  UNL1       -0.2188
     29 C          -5.1862   13.2376    3.6251 C.ar    1  UNL1        0.1205
     30 N          -5.4353   13.2584    2.2933 N.ar    1  UNL1       -0.2159
     31 C          -4.2887   13.5617    1.5875 C.ar    1  UNL1        0.1674
     32 H          -8.0788   13.6338    0.5201 H       1  UNL1        0.0631
     33 H          -8.9346   12.8024   -0.8101 H       1  UNL1        0.0631
     34 H          -7.4507   14.6995   -2.1572 H       1  UNL1        0.0650
     35 H          -7.5416   11.8920   -2.1917 H       1  UNL1        0.0694
     36 H          -6.0371   11.7489   -0.2612 H       1  UNL1        0.0667
     37 H          -4.5866   13.9627   -1.8640 H       1  UNL1        0.0866
     38 H          -2.3242   14.2083   -0.9482 H       1  UNL1        0.1030
     39 H          -6.0460   13.0094    4.2375 H       1  UNL1        0.1048
     40 H          -1.3160   14.7739    4.3311 H       1  UNL1        0.1438
     41 H          -1.2942   13.0534    4.6462 H       1  UNL1        0.1438
     42 H          -3.8514   11.3622   -1.4546 H       1  UNL1        0.2101
@<TRIPOS>BOND
     1     1     2    1
     2     1     3    1
     3     1     4    1
     4     1     8    1
     5     5     6    1
     6     5     7    1
     7     5     8    1
     8     5     9    1
     9     9    10    1
    10    10    11    1
    11    11    12    1
    12    11    13    1
    13    12    21    1
    14    13    14    1
    15    13    19    1
    16    14    15    1
    17    15    16    1
    18    15    17    1
    19    15    18    1
    20    19    20    1
    21    19    21    1
    22    21    22    1
    23    22    23   ar
    24    22    31   ar
    25    23    24   ar
    26    24    25   ar
    27    25    26   ar
    28    25    31   ar
    29    26    27    1
    30    26    28   ar
    31    28    29   ar
    32    29    30   ar
    33    30    31   ar
    34    32    10    1
    35    33    10    1
    36    11    34    1
    37    13    35    1
    38    19    36    1
    39    21    37    1
    40    38    23    1
    41    39    29    1
    42    40    27    1
    43    41    27    1
    44    42    20    1
@<TRIPOS>SUBSTRUCTURE
     1 UNL1        1 TEMP              0 ****  ****    0 ROOT

########## Name:	18	2248.32  0.573347
@<TRIPOS>MOLECULE
af2_protein.mol218	
 42 44 1 0 0
SMALL
GASTEIGER


@<TRIPOS>ATOM
      1 P          -6.0910    9.7555   -4.6621 P.3     1  UNL1        0.0544
      2 O          -6.0470    9.9206   -6.1290 O.co2   1  UNL1       -0.6615
      3 O          -4.7486    9.7779   -3.9880 O.co2   1  UNL1       -0.6615
      4 O          -6.9551    8.6394   -4.2122 O.co2   1  UNL1       -0.6615
      5 P          -6.9564   11.9661   -2.6071 P.3     1  UNL1        0.2491
      6 O          -5.5666   11.9425   -2.0621 O.co2   1  UNL1       -0.6337
      7 O          -8.0660   11.4822   -1.7418 O.co2   1  UNL1       -0.6337
      8 O          -6.8252   11.1157   -4.0959 O.3     1  UNL1       -0.0930
      9 O          -7.2634   13.5046   -3.0420 O.3     1  UNL1       -0.2057
     10 C          -7.0174   14.5740   -2.1502 C.3     1  UNL1        0.1232
     11 C          -7.8083   14.2594   -0.9144 C.3     1  UNL1        0.1214
     12 O          -6.8602   13.7690    0.0394 O.3     1  UNL1       -0.3453
     13 C          -8.4737   15.5110   -0.2795 C.3     1  UNL1        0.1593
     14 O          -9.7337   15.1256    0.3418 O.3     1  UNL1       -0.2421
     15 P         -11.0167   14.5019   -0.5971 P.3     1  UNL1       -0.0004
     16 O         -12.1478   15.3209   -0.0948 O.co2   1  UNL1       -0.6646
     17 O         -10.5813   14.8089   -1.9834 O.co2   1  UNL1       -0.6646
     18 O         -11.0662   13.0350   -0.3153 O.co2   1  UNL1       -0.6646
     19 C          -7.4337   15.8938    0.7665 C.3     1  UNL1        0.1329
     20 O          -8.0192   16.7176    1.7991 O.3     1  UNL1       -0.3845
     21 C          -7.1399   14.4592    1.2478 C.3     1  UNL1        0.1668
     22 N          -5.9230   14.2672    2.0685 N.ar    1  UNL1       -0.2855
     23 C          -5.9695   13.8550    3.3768 C.ar    1  UNL1        0.1004
     24 N          -4.8037   13.7512    3.9428 N.ar    1  UNL1       -0.2306
     25 C          -3.8678   14.1277    2.9270 C.ar    1  UNL1        0.1473
     26 C          -2.4098   14.2053    2.9176 C.ar    1  UNL1        0.1472
     27 N          -1.6669   13.9967    4.0219 N.pl3   1  UNL1       -0.3413
     28 N          -1.8137   14.5741    1.7532 N.ar    1  UNL1       -0.2188
     29 C          -2.6027   14.8604    0.7072 C.ar    1  UNL1        0.1205
     30 N          -3.9515   14.8423    0.5779 N.ar    1  UNL1       -0.2159
     31 C          -4.5492   14.4499    1.7583 C.ar    1  UNL1        0.1674
     32 H          -5.9547   14.6366   -1.9158 H       1  UNL1        0.0631
     33 H          -7.3608   15.5119   -2.5863 H       1  UNL1        0.0631
     34 H          -8.5590   13.4985   -1.1281 H       1  UNL1        0.0650
     35 H          -8.6151   16.3048   -1.0128 H       1  UNL1        0.0694
     36 H          -6.5572   16.3619    0.3185 H       1  UNL1        0.0667
     37 H          -8.0115   14.0321    1.7437 H       1  UNL1        0.0866
     38 H          -6.8937   13.6360    3.8910 H       1  UNL1        0.1030
     39 H          -2.0717   15.1562   -0.1855 H       1  UNL1        0.1048
     40 H          -1.5421   13.0596    4.3773 H       1  UNL1        0.1438
     41 H          -1.2347   14.7776    4.4947 H       1  UNL1        0.1438
     42 H          -7.5499   16.5780    2.6248 H       1  UNL1        0.2101
@<TRIPOS>BOND
     1     1     2    1
     2     1     3    1
     3     1     4    1
     4     1     8    1
     5     5     6    1
     6     5     7    1
     7     5     8    1
     8     5     9    1
     9     9    10    1
    10    10    11    1
    11    11    12    1
    12    11    13    1
    13    12    21    1
    14    13    14    1
    15    13    19    1
    16    14    15    1
    17    15    16    1
    18    15    17    1
    19    15    18    1
    20    19    20    1
    21    19    21    1
    22    21    22    1
    23    22    23   ar
    24    22    31   ar
    25    23    24   ar
    26    24    25   ar
    27    25    26   ar
    28    25    31   ar
    29    26    27    1
    30    26    28   ar
    31    28    29   ar
    32    29    30   ar
    33    30    31   ar
    34    32    10    1
    35    33    10    1
    36    11    34    1
    37    13    35    1
    38    19    36    1
    39    21    37    1
    40    38    23    1
    41    39    29    1
    42    40    27    1
    43    41    27    1
    44    42    20    1
@<TRIPOS>SUBSTRUCTURE
     1 UNL1        1 TEMP              0 ****  ****    0 ROOT

########## Name:	19	2392.73  0.625031
@<TRIPOS>MOLECULE
af2_protein.mol219	
 42 44 1 0 0
SMALL
GASTEIGER


@<TRIPOS>ATOM
      1 P          -3.7077   11.1040   -5.1833 P.3     1  UNL1        0.0544
      2 O          -3.1181   11.4201   -6.4998 O.co2   1  UNL1       -0.6615
      3 O          -2.7073   10.7950   -4.1060 O.co2   1  UNL1       -0.6615
      4 O          -4.8222   10.1300   -5.2462 O.co2   1  UNL1       -0.6615
      5 P          -4.9354   13.1960   -3.1894 P.3     1  UNL1        0.2491
      6 O          -3.8513   12.8473   -2.2238 O.co2   1  UNL1       -0.6337
      7 O          -6.3373   12.8390   -2.8411 O.co2   1  UNL1       -0.6337
      8 O          -4.3989   12.5075   -4.6710 O.3     1  UNL1       -0.0930
      9 O          -4.8484   14.8035   -3.4317 O.3     1  UNL1       -0.2057
     10 C          -4.7921   15.7002   -2.3398 C.3     1  UNL1        0.1232
     11 C          -6.0091   15.4064   -1.5126 C.3     1  UNL1        0.1214
     12 O          -5.5444   14.6411   -0.3957 O.3     1  UNL1       -0.3453
     13 C          -6.6766   16.6831   -0.9323 C.3     1  UNL1        0.1593
     14 O          -8.1161   16.4781   -0.8435 O.3     1  UNL1       -0.2421
     15 P          -9.0505   16.2189   -2.2493 P.3     1  UNL1       -0.0004
     16 O         -10.1606   17.1772   -2.0216 O.co2   1  UNL1       -0.6646
     17 O          -8.1088   16.5899   -3.3361 O.co2   1  UNL1       -0.6646
     18 O          -9.4017   14.7662   -2.2559 O.co2   1  UNL1       -0.6646
     19 C          -6.0384   16.7417    0.4503 C.3     1  UNL1        0.1329
     20 O          -6.8343   17.5417    1.3526 O.3     1  UNL1       -0.3845
     21 C          -6.1397   15.2328    0.7489 C.3     1  UNL1        0.1668
     22 N          -5.3375   14.7223    1.8834 N.ar    1  UNL1       -0.2855
     23 C          -5.9070   14.1833    3.0098 C.ar    1  UNL1        0.1004
     24 N          -5.0484   13.7968    3.9063 N.ar    1  UNL1       -0.2306
     25 C          -3.7678   14.0989    3.3421 C.ar    1  UNL1        0.1473
     26 C          -2.4079   13.8978    3.8340 C.ar    1  UNL1        0.1472
     27 N          -2.1472   13.4296    5.0701 N.pl3   1  UNL1       -0.3413
     28 N          -1.3887   14.2736    3.0172 N.ar    1  UNL1       -0.2188
     29 C          -1.7019   14.8198    1.8330 C.ar    1  UNL1        0.1205
     30 N          -2.9031   15.0735    1.2593 N.ar    1  UNL1       -0.2159
     31 C          -3.9328   14.6732    2.0864 C.ar    1  UNL1        0.1674
     32 H          -3.8865   15.5327   -1.7567 H       1  UNL1        0.0631
     33 H          -4.8220   16.7291   -2.6982 H       1  UNL1        0.0631
     34 H          -6.7314   14.8311   -2.0919 H       1  UNL1        0.0650
     35 H          -6.4335   17.5661   -1.5233 H       1  UNL1        0.0694
     36 H          -5.0035   17.0811    0.4081 H       1  UNL1        0.0667
     37 H          -7.1816   14.9271    0.8441 H       1  UNL1        0.0866
     38 H          -6.9750   14.0884    3.1400 H       1  UNL1        0.1030
     39 H          -0.8505   15.1066    1.2337 H       1  UNL1        0.1048
     40 H          -2.2901   12.4522    5.2806 H       1  UNL1        0.1438
     41 H          -1.8090   14.0562    5.7863 H       1  UNL1        0.1438
     42 H          -6.7167   17.2240    2.2509 H       1  UNL1        0.2101
@<TRIPOS>BOND
     1     1     2    1
     2     1     3    1
     3     1     4    1
     4     1     8    1
     5     5     6    1
     6     5     7    1
     7     5     8    1
     8     5     9    1
     9     9    10    1
    10    10    11    1
    11    11    12    1
    12    11    13    1
    13    12    21    1
    14    13    14    1
    15    13    19    1
    16    14    15    1
    17    15    16    1
    18    15    17    1
    19    15    18    1
    20    19    20    1
    21    19    21    1
    22    21    22    1
    23    22    23   ar
    24    22    31   ar
    25    23    24   ar
    26    24    25   ar
    27    25    26   ar
    28    25    31   ar
    29    26    27    1
    30    26    28   ar
    31    28    29   ar
    32    29    30   ar
    33    30    31   ar
    34    32    10    1
    35    33    10    1
    36    11    34    1
    37    13    35    1
    38    19    36    1
    39    21    37    1
    40    38    23    1
    41    39    29    1
    42    40    27    1
    43    41    27    1
    44    42    20    1
@<TRIPOS>SUBSTRUCTURE
     1 UNL1        1 TEMP              0 ****  ****    0 ROOT

########## Name:	0	3195.71  0.61131
@<TRIPOS>MOLECULE
af2_protein.mol20	
 42 44 1 0 0
SMALL
GASTEIGER


@<TRIPOS>ATOM
      1 P         -11.1513   17.0115   -4.1884 P.3     1  UNL1        0.0544
      2 O         -11.3348   18.3151   -4.8576 O.co2   1  UNL1       -0.6615
      3 O         -10.0344   16.1737   -4.7429 O.co2   1  UNL1       -0.6615
      4 O         -12.4113   16.2564   -3.9955 O.co2   1  UNL1       -0.6615
      5 P          -9.8314   16.5811   -1.3721 P.3     1  UNL1        0.2491
      6 O          -8.7402   15.8185   -2.0480 O.co2   1  UNL1       -0.6337
      7 O         -10.7507   15.8470   -0.4609 O.co2   1  UNL1       -0.6337
      8 O         -10.6371   17.3748   -2.6674 O.3     1  UNL1       -0.0930
      9 O          -9.1167   17.7832   -0.5387 O.3     1  UNL1       -0.2057
     10 C          -8.0292   17.5203    0.3259 C.3     1  UNL1        0.1232
     11 C          -8.5270   16.4932    1.3001 C.3     1  UNL1        0.1214
     12 O          -7.9708   15.2467    0.8688 O.3     1  UNL1       -0.3453
     13 C          -8.0214   16.7299    2.7495 C.3     1  UNL1        0.1593
     14 O          -9.0355   16.2817    3.6943 O.3     1  UNL1       -0.2421
     15 P         -10.5711   17.0270    3.7475 P.3     1  UNL1       -0.0004
     16 O         -10.7147   17.2561    5.2067 O.co2   1  UNL1       -0.6646
     17 O         -10.3641   18.2517    2.9332 O.co2   1  UNL1       -0.6646
     18 O         -11.5250   16.0646    3.1168 O.co2   1  UNL1       -0.6646
     19 C          -6.7955   15.8252    2.7809 C.3     1  UNL1        0.1329
     20 O          -6.4312   15.4967    4.1399 O.3     1  UNL1       -0.3845
     21 C          -7.4399   14.6391    2.0364 C.3     1  UNL1        0.1668
     22 N          -6.5228   13.5973    1.5217 N.ar    1  UNL1       -0.2855
     23 C          -6.5416   12.3031    1.9781 C.ar    1  UNL1        0.1004
     24 N          -5.6582   11.5299    1.4193 N.ar    1  UNL1       -0.2306
     25 C          -4.9675   12.3729    0.4911 C.ar    1  UNL1        0.1473
     26 C          -3.8831   12.1116   -0.4510 C.ar    1  UNL1        0.1472
     27 N          -3.2506   10.9238   -0.5151 N.pl3   1  UNL1       -0.3413
     28 N          -3.4715   13.1472   -1.2290 N.ar    1  UNL1       -0.2188
     29 C          -4.0717   14.3349   -1.0624 C.ar    1  UNL1        0.1205
     30 N          -5.0696   14.7193   -0.2300 N.ar    1  UNL1       -0.2159
     31 C          -5.4946   13.6587    0.5441 C.ar    1  UNL1        0.1674
     32 H          -7.1813   17.1306   -0.2374 H       1  UNL1        0.0631
     33 H          -7.7423   18.4296    0.8539 H       1  UNL1        0.0631
     34 H          -9.6160   16.4491    1.2812 H       1  UNL1        0.0650
     35 H          -7.7533   17.7733    2.9148 H       1  UNL1        0.0694
     36 H          -5.9598   16.2506    2.2254 H       1  UNL1        0.0667
     37 H          -8.2341   14.1930    2.6350 H       1  UNL1        0.0866
     38 H          -7.2299   11.9572    2.7351 H       1  UNL1        0.1030
     39 H          -3.6949   15.1198   -1.7013 H       1  UNL1        0.1048
     40 H          -3.7102   10.1289   -0.9359 H       1  UNL1        0.1438
     41 H          -2.3169   10.8281   -0.1423 H       1  UNL1        0.1438
     42 H          -6.0085   14.6349    4.1589 H       1  UNL1        0.2101
@<TRIPOS>BOND
     1     1     2    1
     2     1     3    1
     3     1     4    1
     4     1     8    1
     5     5     6    1
     6     5     7    1
     7     5     8    1
     8     5     9    1
     9     9    10    1
    10    10    11    1
    11    11    12    1
    12    11    13    1
    13    12    21    1
    14    13    14    1
    15    13    19    1
    16    14    15    1
    17    15    16    1
    18    15    17    1
    19    15    18    1
    20    19    20    1
    21    19    21    1
    22    21    22    1
    23    22    23   ar
    24    22    31   ar
    25    23    24   ar
    26    24    25   ar
    27    25    26   ar
    28    25    31   ar
    29    26    27    1
    30    26    28   ar
    31    28    29   ar
    32    29    30   ar
    33    30    31   ar
    34    32    10    1
    35    33    10    1
    36    11    34    1
    37    13    35    1
    38    19    36    1
    39    21    37    1
    40    38    23    1
    41    39    29    1
    42    40    27    1
    43    41    27    1
    44    42    20    1
@<TRIPOS>SUBSTRUCTURE
     1 UNL1        1 TEMP              0 ****  ****    0 ROOT

########## Name:	1	2704.71  0.637815
@<TRIPOS>MOLECULE
af2_protein.mol21	
 42 44 1 0 0
SMALL
GASTEIGER


@<TRIPOS>ATOM
      1 P         -12.1631   18.5241    4.2228 P.3     1  UNL1        0.0544
      2 O         -12.4925   18.1805    5.6208 O.co2   1  UNL1       -0.6615
      3 O         -11.2317   19.6924    4.0669 O.co2   1  UNL1       -0.6615
      4 O         -13.3436   18.5913    3.3302 O.co2   1  UNL1       -0.6615
      5 P         -10.1838   16.9336    2.3758 P.3     1  UNL1        0.2491
      6 O          -9.3069   18.1416    2.3483 O.co2   1  UNL1       -0.6337
      7 O         -10.8540   16.5147    1.1149 O.co2   1  UNL1       -0.6337
      8 O         -11.2790   17.2536    3.6623 O.3     1  UNL1       -0.0930
      9 O          -9.2678   15.7014    2.9170 O.3     1  UNL1       -0.2057
     10 C          -8.0015   15.4337    2.3478 C.3     1  UNL1        0.1232
     11 C          -8.2514   15.2355    0.8815 C.3     1  UNL1        0.1214
     12 O          -7.8370   16.4509    0.2489 O.3     1  UNL1       -0.3453
     13 C          -7.3952   14.0964    0.2640 C.3     1  UNL1        0.1593
     14 O          -8.1451   13.4547   -0.8074 O.3     1  UNL1       -0.2421
     15 P          -9.6088   12.6372   -0.4820 P.3     1  UNL1       -0.0004
     16 O          -9.3785   11.3628   -1.2069 O.co2   1  UNL1       -0.6646
     17 O          -9.5976   12.5321    0.9994 O.co2   1  UNL1       -0.6646
     18 O         -10.7023   13.5182   -0.9935 O.co2   1  UNL1       -0.6646
     19 C          -6.2121   14.8860   -0.2829 C.3     1  UNL1        0.1329
     20 O          -5.5223   14.1381   -1.3088 O.3     1  UNL1       -0.3845
     21 C          -7.0375   16.0554   -0.8551 C.3     1  UNL1        0.1668
     22 N          -6.2922   17.2799   -1.2241 N.ar    1  UNL1       -0.2855
     23 C          -6.2119   17.7371   -2.5157 C.ar    1  UNL1        0.1004
     24 N          -5.5069   18.8208   -2.6528 N.ar    1  UNL1       -0.2306
     25 C          -5.0608   19.1381   -1.3300 C.ar    1  UNL1        0.1473
     26 C          -4.2510   20.2338   -0.8051 C.ar    1  UNL1        0.1472
     27 N          -3.6699   21.1508   -1.6028 N.pl3   1  UNL1       -0.3413
     28 N          -4.0351   20.2608    0.5364 N.ar    1  UNL1       -0.2188
     29 C          -4.5594   19.2731    1.2768 C.ar    1  UNL1        0.1205
     30 N          -5.3114   18.2013    0.9273 N.ar    1  UNL1       -0.2159
     31 C          -5.5416   18.1901   -0.4334 C.ar    1  UNL1        0.1674
     32 H          -7.3270   16.2749    2.5083 H       1  UNL1        0.0631
     33 H          -7.5798   14.5272    2.7819 H       1  UNL1        0.0631
     34 H          -9.3107   15.0551    0.6985 H       1  UNL1        0.0650
     35 H          -7.0812   13.3766    1.0198 H       1  UNL1        0.0694
     36 H          -5.5374   15.2113    0.5089 H       1  UNL1        0.0667
     37 H          -7.6615   15.7188   -1.6830 H       1  UNL1        0.0866
     38 H          -6.6923   17.2400   -3.3456 H       1  UNL1        0.1030
     39 H          -4.3453   19.3440    2.3329 H       1  UNL1        0.1048
     40 H          -4.2302   21.8698   -2.0377 H       1  UNL1        0.1438
     41 H          -2.6737   21.1192   -1.7662 H       1  UNL1        0.1438
     42 H          -5.1192   14.7465   -1.9325 H       1  UNL1        0.2101
@<TRIPOS>BOND
     1     1     2    1
     2     1     3    1
     3     1     4    1
     4     1     8    1
     5     5     6    1
     6     5     7    1
     7     5     8    1
     8     5     9    1
     9     9    10    1
    10    10    11    1
    11    11    12    1
    12    11    13    1
    13    12    21    1
    14    13    14    1
    15    13    19    1
    16    14    15    1
    17    15    16    1
    18    15    17    1
    19    15    18    1
    20    19    20    1
    21    19    21    1
    22    21    22    1
    23    22    23   ar
    24    22    31   ar
    25    23    24   ar
    26    24    25   ar
    27    25    26   ar
    28    25    31   ar
    29    26    27    1
    30    26    28   ar
    31    28    29   ar
    32    29    30   ar
    33    30    31   ar
    34    32    10    1
    35    33    10    1
    36    11    34    1
    37    13    35    1
    38    19    36    1
    39    21    37    1
    40    38    23    1
    41    39    29    1
    42    40    27    1
    43    41    27    1
    44    42    20    1
@<TRIPOS>SUBSTRUCTURE
     1 UNL1        1 TEMP              0 ****  ****    0 ROOT

########## Name:	2	2902.43  0.639414
@<TRIPOS>MOLECULE
af2_protein.mol22	
 42 44 1 0 0
SMALL
GASTEIGER


@<TRIPOS>ATOM
      1 P           0.9385   14.6167   -0.7649 P.3     1  UNL1        0.0544
      2 O           1.8418   13.7097   -0.0284 O.co2   1  UNL1       -0.6615
      3 O           0.2304   13.9864   -1.9303 O.co2   1  UNL1       -0.6615
      4 O           1.5431   15.9305   -1.0863 O.co2   1  UNL1       -0.6615
      5 P          -1.8936   15.5546    0.2142 P.3     1  UNL1        0.2491
      6 O          -2.4872   14.8351   -0.9516 O.co2   1  UNL1       -0.6337
      7 O          -1.9788   17.0398    0.2495 O.co2   1  UNL1       -0.6337
      8 O          -0.2828   14.9570    0.2852 O.3     1  UNL1       -0.0930
      9 O          -2.6096   14.9565    1.5484 O.3     1  UNL1       -0.2057
     10 C          -4.0176   14.8610    1.6357 C.3     1  UNL1        0.1232
     11 C          -4.5322   16.2506    1.3990 C.3     1  UNL1        0.1214
     12 O          -5.0139   16.2622    0.0510 O.3     1  UNL1       -0.3453
     13 C          -5.7372   16.6191    2.3069 C.3     1  UNL1        0.1593
     14 O          -5.6957   18.0432    2.6107 O.3     1  UNL1       -0.2421
     15 P          -4.3938   18.7117    3.4911 P.3     1  UNL1       -0.0004
     16 O          -5.1284   19.5165    4.4986 O.co2   1  UNL1       -0.6646
     17 O          -3.7102   17.5052    4.0228 O.co2   1  UNL1       -0.6646
     18 O          -3.5619   19.4621    2.5019 O.co2   1  UNL1       -0.6646
     19 C          -6.9062   16.2816    1.3894 C.3     1  UNL1        0.1329
     20 O          -8.1047   16.9736    1.8046 O.3     1  UNL1       -0.3845
     21 C          -6.2927   16.8756    0.1061 C.3     1  UNL1        0.1668
     22 N          -6.9334   16.5009   -1.1746 N.ar    1  UNL1       -0.2855
     23 C          -7.5534   17.4160   -1.9882 C.ar    1  UNL1        0.1004
     24 N          -8.0690   16.9046   -3.0666 N.ar    1  UNL1       -0.2306
     25 C          -7.7753   15.5058   -2.9861 C.ar    1  UNL1        0.1473
     26 C          -8.0630   14.3906   -3.8835 C.ar    1  UNL1        0.1472
     27 N          -8.8123   14.5303   -4.9944 N.pl3   1  UNL1       -0.3413
     28 N          -7.6040   13.1643   -3.5193 N.ar    1  UNL1       -0.2188
     29 C          -6.9420   13.0614   -2.3575 C.ar    1  UNL1        0.1205
     30 N          -6.6167   13.9963   -1.4321 N.ar    1  UNL1       -0.2159
     31 C          -7.0702   15.2417   -1.8170 C.ar    1  UNL1        0.1674
     32 H          -4.4002   14.1793    0.8761 H       1  UNL1        0.0631
     33 H          -4.3089   14.5176    2.6283 H       1  UNL1        0.0631
     34 H          -3.7296   16.9780    1.5208 H       1  UNL1        0.0650
     35 H          -5.7537   16.0163    3.2148 H       1  UNL1        0.0694
     36 H          -7.0633   15.2061    1.3071 H       1  UNL1        0.0667
     37 H          -6.1985   17.9584    0.1885 H       1  UNL1        0.0866
     38 H          -7.6081   18.4687   -1.7532 H       1  UNL1        0.1030
     39 H          -6.6114   12.0614   -2.1184 H       1  UNL1        0.1048
     40 H          -8.4291   14.9908   -5.8075 H       1  UNL1        0.1438
     41 H          -9.7573   14.1747   -5.0141 H       1  UNL1        0.1438
     42 H          -8.6621   17.1358    1.0400 H       1  UNL1        0.2101
@<TRIPOS>BOND
     1     1     2    1
     2     1     3    1
     3     1     4    1
     4     1     8    1
     5     5     6    1
     6     5     7    1
     7     5     8    1
     8     5     9    1
     9     9    10    1
    10    10    11    1
    11    11    12    1
    12    11    13    1
    13    12    21    1
    14    13    14    1
    15    13    19    1
    16    14    15    1
    17    15    16    1
    18    15    17    1
    19    15    18    1
    20    19    20    1
    21    19    21    1
    22    21    22    1
    23    22    23   ar
    24    22    31   ar
    25    23    24   ar
    26    24    25   ar
    27    25    26   ar
    28    25    31   ar
    29    26    27    1
    30    26    28   ar
    31    28    29   ar
    32    29    30   ar
    33    30    31   ar
    34    32    10    1
    35    33    10    1
    36    11    34    1
    37    13    35    1
    38    19    36    1
    39    21    37    1
    40    38    23    1
    41    39    29    1
    42    40    27    1
    43    41    27    1
    44    42    20    1
@<TRIPOS>SUBSTRUCTURE
     1 UNL1        1 TEMP              0 ****  ****    0 ROOT

########## Name:	3	3420.75  0.647607
@<TRIPOS>MOLECULE
af2_protein.mol23	
 42 44 1 0 0
SMALL
GASTEIGER


@<TRIPOS>ATOM
      1 P          -6.8042   17.9554    5.3103 P.3     1  UNL1        0.0544
      2 O          -6.0442   19.0547    5.9387 O.co2   1  UNL1       -0.6615
      3 O          -7.9649   18.3983    4.4656 O.co2   1  UNL1       -0.6615
      4 O          -7.1427   16.8543    6.2419 O.co2   1  UNL1       -0.6615
      5 P          -5.8668   16.2844    2.8227 P.3     1  UNL1        0.2491
      6 O          -7.0254   16.8434    2.0649 O.co2   1  UNL1       -0.6337
      7 O          -5.8578   14.8291    3.1329 O.co2   1  UNL1       -0.6337
      8 O          -5.7711   17.2848    4.2180 O.3     1  UNL1       -0.0930
      9 O          -4.5291   16.6467    1.9686 O.3     1  UNL1       -0.2057
     10 C          -4.4528   16.3652    0.5851 C.3     1  UNL1        0.1232
     11 C          -4.7179   14.8939    0.4570 C.3     1  UNL1        0.1214
     12 O          -6.0701   14.7809    0.0010 O.3     1  UNL1       -0.3453
     13 C          -3.8273   14.2030   -0.6115 C.3     1  UNL1        0.1593
     14 O          -3.5477   12.8350   -0.1963 O.3     1  UNL1       -0.2421
     15 P          -2.6672   12.5176    1.2322 P.3     1  UNL1       -0.0004
     16 O          -1.6803   11.5284    0.7323 O.co2   1  UNL1       -0.6646
     17 O          -2.1087   13.8515    1.5705 O.co2   1  UNL1       -0.6646
     18 O          -3.6617   12.0324    2.2370 O.co2   1  UNL1       -0.6646
     19 C          -4.7493   14.2371   -1.8243 C.3     1  UNL1        0.1329
     20 O          -4.3569   13.2453   -2.7991 O.3     1  UNL1       -0.3845
     21 C          -6.0371   13.8506   -1.0704 C.3     1  UNL1        0.1668
     22 N          -7.3169   14.0670   -1.7821 N.ar    1  UNL1       -0.2855
     23 C          -8.1516   13.0362   -2.1349 C.ar    1  UNL1        0.1004
     24 N          -9.2256   13.4135   -2.7628 N.ar    1  UNL1       -0.2306
     25 C          -9.1185   14.8384   -2.8495 C.ar    1  UNL1        0.1473
     26 C          -9.9991   15.8548   -3.4181 C.ar    1  UNL1        0.1472
     27 N         -11.1190   15.5432   -4.0991 N.pl3   1  UNL1       -0.3413
     28 N          -9.6098   17.1516   -3.3009 N.ar    1  UNL1       -0.2188
     29 C          -8.4405   17.4038   -2.6944 C.ar    1  UNL1        0.1205
     30 N          -7.5285   16.5706   -2.1374 N.ar    1  UNL1       -0.2159
     31 C          -7.9387   15.2572   -2.2441 C.ar    1  UNL1        0.1674
     32 H          -5.2040   16.9360    0.0390 H       1  UNL1        0.0631
     33 H          -3.4571   16.6007    0.2093 H       1  UNL1        0.0631
     34 H          -4.6014   14.4021    1.4228 H       1  UNL1        0.0650
     35 H          -2.9093   14.7627   -0.7905 H       1  UNL1        0.0694
     36 H          -4.8145   15.2342   -2.2597 H       1  UNL1        0.0667
     37 H          -5.9724   12.8298   -0.6938 H       1  UNL1        0.0866
     38 H          -7.9351   12.0021   -1.9104 H       1  UNL1        0.1030
     39 H          -8.1813   18.4508   -2.6408 H       1  UNL1        0.1048
     40 H         -11.9364   15.2157   -3.6045 H       1  UNL1        0.1438
     41 H         -11.1410   15.6369   -5.1045 H       1  UNL1        0.1438
     42 H          -5.1291   12.9562   -3.2906 H       1  UNL1        0.2101
@<TRIPOS>BOND
     1     1     2    1
     2     1     3    1
     3     1     4    1
     4     1     8    1
     5     5     6    1
     6     5     7    1
     7     5     8    1
     8     5     9    1
     9     9    10    1
    10    10    11    1
    11    11    12    1
    12    11    13    1
    13    12    21    1
    14    13    14    1
    15    13    19    1
    16    14    15    1
    17    15    16    1
    18    15    17    1
    19    15    18    1
    20    19    20    1
    21    19    21    1
    22    21    22    1
    23    22    23   ar
    24    22    31   ar
    25    23    24   ar
    26    24    25   ar
    27    25    26   ar
    28    25    31   ar
    29    26    27    1
    30    26    28   ar
    31    28    29   ar
    32    29    30   ar
    33    30    31   ar
    34    32    10    1
    35    33    10    1
    36    11    34    1
    37    13    35    1
    38    19    36    1
    39    21    37    1
    40    38    23    1
    41    39    29    1
    42    40    27    1
    43    41    27    1
    44    42    20    1
@<TRIPOS>SUBSTRUCTURE
     1 UNL1        1 TEMP              0 ****  ****    0 ROOT

########## Name:	4	2812.07  0.633537
@<TRIPOS>MOLECULE
af2_protein.mol24	
 42 44 1 0 0
SMALL
GASTEIGER


@<TRIPOS>ATOM
      1 P         -11.7943   12.4367    1.3674 P.3     1  UNL1        0.0544
      2 O         -12.8211   12.2319    2.4089 O.co2   1  UNL1       -0.6615
      3 O         -12.2202   13.3245    0.2328 O.co2   1  UNL1       -0.6615
      4 O         -11.1397   11.1854    0.9197 O.co2   1  UNL1       -0.6615
      5 P          -9.2764   14.2935    1.6343 P.3     1  UNL1        0.2491
      6 O          -9.8354   15.1367    0.5363 O.co2   1  UNL1       -0.6337
      7 O          -8.0244   13.5316    1.3764 O.co2   1  UNL1       -0.6337
      8 O         -10.6007   13.3011    2.1011 O.3     1  UNL1       -0.0930
      9 O          -9.0371   15.2796    2.9074 O.3     1  UNL1       -0.2057
     10 C          -8.3397   16.5006    2.7588 C.3     1  UNL1        0.1232
     11 C          -7.0046   16.1353    2.1795 C.3     1  UNL1        0.1214
     12 O          -7.0802   16.4676    0.7892 O.3     1  UNL1       -0.3453
     13 C          -5.8330   16.9640    2.7735 C.3     1  UNL1        0.1593
     14 O          -4.6299   16.1435    2.8090 O.3     1  UNL1       -0.2421
     15 P          -4.5628   14.7312    3.7668 P.3     1  UNL1       -0.0004
     16 O          -3.2656   14.9306    4.4594 O.co2   1  UNL1       -0.6646
     17 O          -5.7657   14.8670    4.6272 O.co2   1  UNL1       -0.6646
     18 O          -4.6535   13.5789    2.8193 O.co2   1  UNL1       -0.6646
     19 C          -5.7137   18.0792    1.7418 C.3     1  UNL1        0.1329
     20 O          -4.4099   18.6993    1.8005 O.3     1  UNL1       -0.3845
     21 C          -5.8884   17.1823    0.5003 C.3     1  UNL1        0.1668
     22 N          -6.1736   17.8659   -0.7813 N.ar    1  UNL1       -0.2855
     23 C          -5.3112   17.8286   -1.8484 C.ar    1  UNL1        0.1004
     24 N          -5.7219   18.4944   -2.8868 N.ar    1  UNL1       -0.2306
     25 C          -6.9862   19.0405   -2.4960 C.ar    1  UNL1        0.1473
     26 C          -7.9595   19.8650   -3.2064 C.ar    1  UNL1        0.1472
     27 N          -7.7287   20.3568   -4.4393 N.pl3   1  UNL1       -0.3413
     28 N          -9.1009   20.1901   -2.5442 N.ar    1  UNL1       -0.2188
     29 C          -9.2426   19.7519   -1.2846 C.ar    1  UNL1        0.1205
     30 N          -8.4275   18.9989   -0.5069 N.ar    1  UNL1       -0.2159
     31 C          -7.2789   18.6576   -1.1916 C.ar    1  UNL1        0.1674
     32 H          -8.8779   17.1662    2.0838 H       1  UNL1        0.0631
     33 H          -8.2089   16.9778    3.7300 H       1  UNL1        0.0631
     34 H          -6.8160   15.0690    2.3045 H       1  UNL1        0.0650
     35 H          -6.0796   17.3561    3.7601 H       1  UNL1        0.0694
     36 H          -6.5177   18.8092    1.8347 H       1  UNL1        0.0667
     37 H          -5.0448   16.5002    0.3949 H       1  UNL1        0.0866
     38 H          -4.3735   17.2931   -1.8273 H       1  UNL1        0.1030
     39 H         -10.1646   20.0507   -0.8083 H       1  UNL1        0.1048
     40 H          -7.7687   19.7458   -5.2425 H       1  UNL1        0.1438
     41 H          -7.5156   21.3366   -4.5603 H       1  UNL1        0.1438
     42 H          -4.1756   19.0353    0.9323 H       1  UNL1        0.2101
@<TRIPOS>BOND
     1     1     2    1
     2     1     3    1
     3     1     4    1
     4     1     8    1
     5     5     6    1
     6     5     7    1
     7     5     8    1
     8     5     9    1
     9     9    10    1
    10    10    11    1
    11    11    12    1
    12    11    13    1
    13    12    21    1
    14    13    14    1
    15    13    19    1
    16    14    15    1
    17    15    16    1
    18    15    17    1
    19    15    18    1
    20    19    20    1
    21    19    21    1
    22    21    22    1
    23    22    23   ar
    24    22    31   ar
    25    23    24   ar
    26    24    25   ar
    27    25    26   ar
    28    25    31   ar
    29    26    27    1
    30    26    28   ar
    31    28    29   ar
    32    29    30   ar
    33    30    31   ar
    34    32    10    1
    35    33    10    1
    36    11    34    1
    37    13    35    1
    38    19    36    1
    39    21    37    1
    40    38    23    1
    41    39    29    1
    42    40    27    1
    43    41    27    1
    44    42    20    1
@<TRIPOS>SUBSTRUCTURE
     1 UNL1        1 TEMP              0 ****  ****    0 ROOT

########## Name:	5	3417.8  0.637752
@<TRIPOS>MOLECULE
af2_protein.mol25	
 42 44 1 0 0
SMALL
GASTEIGER


@<TRIPOS>ATOM
      1 P         -10.5100   18.1719   -1.6751 P.3     1  UNL1        0.0544
      2 O         -10.8201   19.2663   -2.6170 O.co2   1  UNL1       -0.6615
      3 O         -10.5700   16.7947   -2.2723 O.co2   1  UNL1       -0.6615
      4 O         -11.2187   18.2808   -0.3787 O.co2   1  UNL1       -0.6615
      5 P          -7.6407   17.4064   -0.6555 P.3     1  UNL1        0.2491
      6 O          -7.7935   16.0912   -1.3454 O.co2   1  UNL1       -0.6337
      7 O          -7.5825   17.4250    0.8313 O.co2   1  UNL1       -0.6337
      8 O          -8.9169   18.3584   -1.3050 O.3     1  UNL1       -0.0930
      9 O          -6.2838   18.0887   -1.2419 O.3     1  UNL1       -0.2057
     10 C          -5.0706   17.3642   -1.2929 C.3     1  UNL1        0.1232
     11 C          -4.8097   16.9137    0.1144 C.3     1  UNL1        0.1214
     12 O          -5.1733   15.5297    0.1532 O.3     1  UNL1       -0.3453
     13 C          -3.3108   16.9928    0.5135 C.3     1  UNL1        0.1593
     14 O          -3.2043   17.3029    1.9328 O.3     1  UNL1       -0.2421
     15 P          -3.7959   18.7806    2.5516 P.3     1  UNL1       -0.0004
     16 O          -2.6384   19.2182    3.3708 O.co2   1  UNL1       -0.6646
     17 O          -4.0338   19.5746    1.3193 O.co2   1  UNL1       -0.6646
     18 O          -5.0570   18.4524    3.2835 O.co2   1  UNL1       -0.6646
     19 C          -2.8568   15.5676    0.2215 C.3     1  UNL1        0.1329
     20 O          -1.6484   15.2518    0.9480 O.3     1  UNL1       -0.3845
     21 C          -4.1003   14.8694    0.8067 C.3     1  UNL1        0.1668
     22 N          -4.2865   13.4415    0.4638 N.ar    1  UNL1       -0.2855
     23 C          -4.2539   12.4434    1.4053 C.ar    1  UNL1        0.1004
     24 N          -4.4262   11.2496    0.9201 N.ar    1  UNL1       -0.2306
     25 C          -4.5930   11.4464   -0.4880 C.ar    1  UNL1        0.1473
     26 C          -4.8380   10.5152   -1.5856 C.ar    1  UNL1        0.1472
     27 N          -4.8500    9.1793   -1.4123 N.pl3   1  UNL1       -0.3413
     28 N          -4.9848   11.0438   -2.8291 N.ar    1  UNL1       -0.2188
     29 C          -4.8730   12.3735   -2.9633 C.ar    1  UNL1        0.1205
     30 N          -4.6392   13.3444   -2.0472 N.ar    1  UNL1       -0.2159
     31 C          -4.5091   12.8024   -0.7847 C.ar    1  UNL1        0.1674
     32 H          -5.1691   16.5042   -1.9554 H       1  UNL1        0.0631
     33 H          -4.2626   18.0105   -1.6355 H       1  UNL1        0.0631
     34 H          -5.4189   17.4853    0.8146 H       1  UNL1        0.0650
     35 H          -2.7716   17.7176   -0.0963 H       1  UNL1        0.0694
     36 H          -2.7505   15.3840   -0.8475 H       1  UNL1        0.0667
     37 H          -4.1548   15.0179    1.8852 H       1  UNL1        0.0866
     38 H          -4.0988   12.6331    2.4572 H       1  UNL1        0.1030
     39 H          -4.9892   12.7321   -3.9753 H       1  UNL1        0.1048
     40 H          -5.6351    8.7359   -0.9573 H       1  UNL1        0.1438
     41 H          -4.0736    8.6210   -1.7373 H       1  UNL1        0.1438
     42 H          -1.6236   14.3104    1.1346 H       1  UNL1        0.2101
@<TRIPOS>BOND
     1     1     2    1
     2     1     3    1
     3     1     4    1
     4     1     8    1
     5     5     6    1
     6     5     7    1
     7     5     8    1
     8     5     9    1
     9     9    10    1
    10    10    11    1
    11    11    12    1
    12    11    13    1
    13    12    21    1
    14    13    14    1
    15    13    19    1
    16    14    15    1
    17    15    16    1
    18    15    17    1
    19    15    18    1
    20    19    20    1
    21    19    21    1
    22    21    22    1
    23    22    23   ar
    24    22    31   ar
    25    23    24   ar
    26    24    25   ar
    27    25    26   ar
    28    25    31   ar
    29    26    27    1
    30    26    28   ar
    31    28    29   ar
    32    29    30   ar
    33    30    31   ar
    34    32    10    1
    35    33    10    1
    36    11    34    1
    37    13    35    1
    38    19    36    1
    39    21    37    1
    40    38    23    1
    41    39    29    1
    42    40    27    1
    43    41    27    1
    44    42    20    1
@<TRIPOS>SUBSTRUCTURE
     1 UNL1        1 TEMP              0 ****  ****    0 ROOT

########## Name:	6	2872.91  0.652914
@<TRIPOS>MOLECULE
af2_protein.mol26	
 42 44 1 0 0
SMALL
GASTEIGER


@<TRIPOS>ATOM
      1 P          -0.1006   15.3375    0.8566 P.3     1  UNL1        0.0544
      2 O           1.1124   14.5998    0.4498 O.co2   1  UNL1       -0.6615
      3 O          -0.5943   16.3366   -0.1508 O.co2   1  UNL1       -0.6615
      4 O          -0.0380   15.8761    2.2353 O.co2   1  UNL1       -0.6615
      5 P          -3.0186   14.1780    0.8655 P.3     1  UNL1        0.2491
      6 O          -3.3733   15.1793   -0.1837 O.co2   1  UNL1       -0.6337
      7 O          -3.6391   14.3108    2.2115 O.co2   1  UNL1       -0.6337
      8 O          -1.2996   14.2101    0.8953 O.3     1  UNL1       -0.0930
      9 O          -3.3886   12.7129    0.2597 O.3     1  UNL1       -0.2057
     10 C          -4.6566   12.4639   -0.3143 C.3     1  UNL1        0.1232
     11 C          -5.6565   12.8076    0.7505 C.3     1  UNL1        0.1214
     12 O          -6.1853   14.0876    0.3885 O.3     1  UNL1       -0.3453
     13 C          -6.8588   11.8256    0.7998 C.3     1  UNL1        0.1593
     14 O          -7.3239   11.6996    2.1745 O.3     1  UNL1       -0.2421
     15 P          -6.3089   11.0503    3.3848 P.3     1  UNL1       -0.0004
     16 O          -7.2282   10.0725    4.0184 O.co2   1  UNL1       -0.6646
     17 O          -5.2021   10.4554    2.5931 O.co2   1  UNL1       -0.6646
     18 O          -5.8672   12.2054    4.2240 O.co2   1  UNL1       -0.6646
     19 C          -7.8736   12.5653   -0.0635 C.3     1  UNL1        0.1329
     20 O          -9.2164   12.1089    0.2128 O.3     1  UNL1       -0.3845
     21 C          -7.5945   13.9686    0.5099 C.3     1  UNL1        0.1668
     22 N          -8.1257   15.1193   -0.2550 N.ar    1  UNL1       -0.2855
     23 C          -9.0829   15.9645    0.2480 C.ar    1  UNL1        0.1004
     24 N          -9.4364   16.9126   -0.5683 N.ar    1  UNL1       -0.2306
     25 C          -8.6471   16.6984   -1.7433 C.ar    1  UNL1        0.1473
     26 C          -8.5577   17.4205   -3.0091 C.ar    1  UNL1        0.1472
     27 N          -9.3682   18.4530   -3.3121 N.pl3   1  UNL1       -0.3413
     28 N          -7.6618   16.9645   -3.9238 N.ar    1  UNL1       -0.2188
     29 C          -6.9428   15.8767   -3.6101 C.ar    1  UNL1        0.1205
     30 N          -6.9298   15.1095   -2.4931 N.ar    1  UNL1       -0.2159
     31 C          -7.8287   15.5888   -1.5621 C.ar    1  UNL1        0.1674
     32 H          -4.8060   13.0915   -1.1930 H       1  UNL1        0.0631
     33 H          -4.7448   11.4120   -0.5857 H       1  UNL1        0.0631
     34 H          -5.1701   12.8602    1.7246 H       1  UNL1        0.0650
     35 H          -6.6018   10.8559    0.3736 H       1  UNL1        0.0694
     36 H          -7.6308   12.5017   -1.1241 H       1  UNL1        0.0667
     37 H          -7.8984   14.0263    1.5550 H       1  UNL1        0.0866
     38 H          -9.5054   15.8519    1.2356 H       1  UNL1        0.1030
     39 H          -6.2562   15.5572   -4.3801 H       1  UNL1        0.1048
     40 H          -9.2272   19.3516   -2.8732 H       1  UNL1        0.1438
     41 H         -10.1171   18.3285   -3.9783 H       1  UNL1        0.1438
     42 H          -9.8372   12.8229    0.0504 H       1  UNL1        0.2101
@<TRIPOS>BOND
     1     1     2    1
     2     1     3    1
     3     1     4    1
     4     1     8    1
     5     5     6    1
     6     5     7    1
     7     5     8    1
     8     5     9    1
     9     9    10    1
    10    10    11    1
    11    11    12    1
    12    11    13    1
    13    12    21    1
    14    13    14    1
    15    13    19    1
    16    14    15    1
    17    15    16    1
    18    15    17    1
    19    15    18    1
    20    19    20    1
    21    19    21    1
    22    21    22    1
    23    22    23   ar
    24    22    31   ar
    25    23    24   ar
    26    24    25   ar
    27    25    26   ar
    28    25    31   ar
    29    26    27    1
    30    26    28   ar
    31    28    29   ar
    32    29    30   ar
    33    30    31   ar
    34    32    10    1
    35    33    10    1
    36    11    34    1
    37    13    35    1
    38    19    36    1
    39    21    37    1
    40    38    23    1
    41    39    29    1
    42    40    27    1
    43    41    27    1
    44    42    20    1
@<TRIPOS>SUBSTRUCTURE
     1 UNL1        1 TEMP              0 ****  ****    0 ROOT

########## Name:	7	2965.79  0.63396
@<TRIPOS>MOLECULE
af2_protein.mol27	
 42 44 1 0 0
SMALL
GASTEIGER


@<TRIPOS>ATOM
      1 P         -11.8347   16.4437    1.3135 P.3     1  UNL1        0.0544
      2 O         -12.6034   17.6708    1.0231 O.co2   1  UNL1       -0.6615
      3 O         -11.9180   15.3852    0.2507 O.co2   1  UNL1       -0.6615
      4 O         -12.0433   15.9182    2.6829 O.co2   1  UNL1       -0.6615
      5 P          -8.7154   16.1565    1.0980 P.3     1  UNL1        0.2491
      6 O          -8.9259   15.1611    0.0052 O.co2   1  UNL1       -0.6337
      7 O          -8.1350   15.6852    2.3846 O.co2   1  UNL1       -0.6337
      8 O         -10.2546   16.9034    1.2714 O.3     1  UNL1       -0.0930
      9 O          -7.7607   17.3263    0.4893 O.3     1  UNL1       -0.2057
     10 C          -6.5597   17.0057   -0.1846 C.3     1  UNL1        0.1232
     11 C          -5.7571   16.1903    0.7863 C.3     1  UNL1        0.1214
     12 O          -5.8940   14.8311    0.3586 O.3     1  UNL1       -0.3453
     13 C          -4.2394   16.5184    0.7519 C.3     1  UNL1        0.1593
     14 O          -3.6773   16.3462    2.0847 O.3     1  UNL1       -0.2421
     15 P          -4.2025   17.3180    3.3872 P.3     1  UNL1       -0.0004
     16 O          -2.8991   17.7389    3.9586 O.co2   1  UNL1       -0.6646
     17 O          -4.9676   18.3907    2.7019 O.co2   1  UNL1       -0.6646
     18 O          -5.0643   16.4440    4.2400 O.co2   1  UNL1       -0.6646
     19 C          -3.7323   15.4476   -0.2065 C.3     1  UNL1        0.1329
     20 O          -2.3138   15.2320   -0.0358 O.3     1  UNL1       -0.3845
     21 C          -4.5804   14.2934    0.3633 C.3     1  UNL1        0.1668
     22 N          -4.6832   13.0700   -0.4637 N.ar    1  UNL1       -0.2855
     23 C          -4.1841   11.8576   -0.0578 C.ar    1  UNL1        0.1004
     24 N          -4.3560   10.8977   -0.9175 N.ar    1  UNL1       -0.2306
     25 C          -5.0378   11.5085   -2.0181 C.ar    1  UNL1        0.1473
     26 C          -5.5302   10.9743   -3.2846 C.ar    1  UNL1        0.1472
     27 N          -5.3004    9.7048   -3.6728 N.pl3   1  UNL1       -0.3413
     28 N          -6.1793   11.8346   -4.1126 N.ar    1  UNL1       -0.2188
     29 C          -6.3021   13.1112   -3.7205 C.ar    1  UNL1        0.1205
     30 N          -5.8900   13.7399   -2.5930 N.ar    1  UNL1       -0.2159
     31 C          -5.2477   12.8567   -1.7493 C.ar    1  UNL1        0.1674
     32 H          -6.7712   16.4268   -1.0837 H       1  UNL1        0.0631
     33 H          -6.0210   17.9170   -0.4438 H       1  UNL1        0.0631
     34 H          -6.1480   16.3109    1.7967 H       1  UNL1        0.0650
     35 H          -4.0550   17.5209    0.3660 H       1  UNL1        0.0694
     36 H          -3.9898   15.6712   -1.2417 H       1  UNL1        0.0667
     37 H          -4.2670   14.0484    1.3781 H       1  UNL1        0.0866
     38 H          -3.6917   11.7137    0.8927 H       1  UNL1        0.1030
     39 H          -6.8178   13.7475   -4.4244 H       1  UNL1        0.1048
     40 H          -5.8051    8.9448   -3.2395 H       1  UNL1        0.1438
     41 H          -4.6231    9.5130   -4.3971 H       1  UNL1        0.1438
     42 H          -2.0982   14.3244   -0.2624 H       1  UNL1        0.2101
@<TRIPOS>BOND
     1     1     2    1
     2     1     3    1
     3     1     4    1
     4     1     8    1
     5     5     6    1
     6     5     7    1
     7     5     8    1
     8     5     9    1
     9     9    10    1
    10    10    11    1
    11    11    12    1
    12    11    13    1
    13    12    21    1
    14    13    14    1
    15    13    19    1
    16    14    15    1
    17    15    16    1
    18    15    17    1
    19    15    18    1
    20    19    20    1
    21    19    21    1
    22    21    22    1
    23    22    23   ar
    24    22    31   ar
    25    23    24   ar
    26    24    25   ar
    27    25    26   ar
    28    25    31   ar
    29    26    27    1
    30    26    28   ar
    31    28    29   ar
    32    29    30   ar
    33    30    31   ar
    34    32    10    1
    35    33    10    1
    36    11    34    1
    37    13    35    1
    38    19    36    1
    39    21    37    1
    40    38    23    1
    41    39    29    1
    42    40    27    1
    43    41    27    1
    44    42    20    1
@<TRIPOS>SUBSTRUCTURE
     1 UNL1        1 TEMP              0 ****  ****    0 ROOT

########## Name:	8	2768.25  0.644692
@<TRIPOS>MOLECULE
af2_protein.mol28	
 42 44 1 0 0
SMALL
GASTEIGER


@<TRIPOS>ATOM
      1 P          -2.0453   18.5845   -0.7573 P.3     1  UNL1        0.0544
      2 O          -0.6465   18.4908   -1.2217 O.co2   1  UNL1       -0.6615
      3 O          -3.0544   18.8081   -1.8476 O.co2   1  UNL1       -0.6615
      4 O          -2.2296   19.4828    0.4062 O.co2   1  UNL1       -0.6615
      5 P          -3.8289   16.1635    0.1463 P.3     1  UNL1        0.2491
      6 O          -4.7255   16.4470   -1.0134 O.co2   1  UNL1       -0.6337
      7 O          -4.3579   16.3769    1.5207 O.co2   1  UNL1       -0.6337
      8 O          -2.4161   17.0819   -0.1964 O.3     1  UNL1       -0.0930
      9 O          -3.3524   14.6134    0.0027 O.3     1  UNL1       -0.2057
     10 C          -4.2946   13.5814   -0.2134 C.3     1  UNL1        0.1232
     11 C          -5.2684   13.6789    0.9241 C.3     1  UNL1        0.1214
     12 O          -6.4332   14.3130    0.3852 O.3     1  UNL1       -0.3453
     13 C          -5.7220   12.2939    1.4609 C.3     1  UNL1        0.1593
     14 O          -5.9773   12.3900    2.8918 O.3     1  UNL1       -0.2421
     15 P          -4.7193   12.7774    3.9801 P.3     1  UNL1       -0.0004
     16 O          -4.9137   11.7263    5.0096 O.co2   1  UNL1       -0.6646
     17 O          -3.5052   12.6211    3.1392 O.co2   1  UNL1       -0.6646
     18 O          -4.9541   14.1912    4.4042 O.co2   1  UNL1       -0.6646
     19 C          -7.0142   12.0886    0.6796 C.3     1  UNL1        0.1329
     20 O          -7.8655   11.1223    1.3348 O.3     1  UNL1       -0.3845
     21 C          -7.5335   13.5324    0.8265 C.3     1  UNL1        0.1668
     22 N          -8.6468   13.9344   -0.0625 N.ar    1  UNL1       -0.2855
     23 C          -9.8881   14.2757    0.4132 C.ar    1  UNL1        0.1004
     24 N         -10.7437   14.5913   -0.5134 N.ar    1  UNL1       -0.2306
     25 C         -10.0217   14.4538   -1.7418 C.ar    1  UNL1        0.1473
     26 C         -10.4041   14.6743   -3.1336 C.ar    1  UNL1        0.1472
     27 N         -11.6635   14.9850   -3.4976 N.pl3   1  UNL1       -0.3413
     28 N          -9.4478   14.4814   -4.0798 N.ar    1  UNL1       -0.2188
     29 C          -8.2334   14.0831   -3.6731 C.ar    1  UNL1        0.1205
     30 N          -7.7476   13.8320   -2.4332 N.ar    1  UNL1       -0.2159
     31 C          -8.7186   14.0472   -1.4764 C.ar    1  UNL1        0.1674
     32 H          -4.8058   13.7265   -1.1651 H       1  UNL1        0.0631
     33 H          -3.7976   12.6115   -0.1991 H       1  UNL1        0.0631
     34 H          -4.8494   14.2795    1.7316 H       1  UNL1        0.0650
     35 H          -4.9905   11.5179    1.2358 H       1  UNL1        0.0694
     36 H          -6.8247   11.8266   -0.3613 H       1  UNL1        0.0667
     37 H          -7.7712   13.7533    1.8671 H       1  UNL1        0.0866
     38 H         -10.1327   14.2817    1.4651 H       1  UNL1        0.1030
     39 H          -7.5203   13.9372   -4.4709 H       1  UNL1        0.1048
     40 H         -12.0241   15.9129   -3.3275 H       1  UNL1        0.1438
     41 H         -12.2471   14.2898   -3.9405 H       1  UNL1        0.1438
     42 H          -8.7844   11.3210    1.1404 H       1  UNL1        0.2101
@<TRIPOS>BOND
     1     1     2    1
     2     1     3    1
     3     1     4    1
     4     1     8    1
     5     5     6    1
     6     5     7    1
     7     5     8    1
     8     5     9    1
     9     9    10    1
    10    10    11    1
    11    11    12    1
    12    11    13    1
    13    12    21    1
    14    13    14    1
    15    13    19    1
    16    14    15    1
    17    15    16    1
    18    15    17    1
    19    15    18    1
    20    19    20    1
    21    19    21    1
    22    21    22    1
    23    22    23   ar
    24    22    31   ar
    25    23    24   ar
    26    24    25   ar
    27    25    26   ar
    28    25    31   ar
    29    26    27    1
    30    26    28   ar
    31    28    29   ar
    32    29    30   ar
    33    30    31   ar
    34    32    10    1
    35    33    10    1
    36    11    34    1
    37    13    35    1
    38    19    36    1
    39    21    37    1
    40    38    23    1
    41    39    29    1
    42    40    27    1
    43    41    27    1
    44    42    20    1
@<TRIPOS>SUBSTRUCTURE
     1 UNL1        1 TEMP              0 ****  ****    0 ROOT

########## Name:	9	2751.04  0.648253
@<TRIPOS>MOLECULE
af2_protein.mol29	
 42 44 1 0 0
SMALL
GASTEIGER


@<TRIPOS>ATOM
      1 P          -7.2014   16.5972    5.0029 P.3     1  UNL1        0.0544
      2 O          -7.5592   17.9603    5.4443 O.co2   1  UNL1       -0.6615
      3 O          -8.2910   15.8697    4.2679 O.co2   1  UNL1       -0.6615
      4 O          -6.5557   15.7787    6.0556 O.co2   1  UNL1       -0.6615
      5 P          -5.3450   15.9011    2.5681 P.3     1  UNL1        0.2491
      6 O          -6.5220   15.2609    1.9093 O.co2   1  UNL1       -0.6337
      7 O          -4.2124   15.0350    2.9939 O.co2   1  UNL1       -0.6337
      8 O          -6.0399   16.8054    3.8551 O.3     1  UNL1       -0.0930
      9 O          -4.7843   17.0272    1.5348 O.3     1  UNL1       -0.2057
     10 C          -4.5348   16.7091    0.1798 C.3     1  UNL1        0.1232
     11 C          -3.5692   15.5607    0.2057 C.3     1  UNL1        0.1214
     12 O          -4.3471   14.3926   -0.0762 O.3     1  UNL1       -0.3453
     13 C          -2.4824   15.6509   -0.9001 C.3     1  UNL1        0.1593
     14 O          -1.2439   15.0614   -0.4097 O.3     1  UNL1       -0.2421
     15 P          -0.4224   15.7381    0.9259 P.3     1  UNL1       -0.0004
     16 O           0.9627   15.7954    0.3959 O.co2   1  UNL1       -0.6646
     17 O          -1.0928   17.0538    1.0846 O.co2   1  UNL1       -0.6646
     18 O          -0.6683   14.8181    2.0778 O.co2   1  UNL1       -0.6646
     19 C          -3.1092   14.7948   -1.9940 C.3     1  UNL1        0.1329
     20 O          -2.1057   14.3288   -2.9233 O.3     1  UNL1       -0.3845
     21 C          -3.6207   13.6772   -1.0637 C.3     1  UNL1        0.1668
     22 N          -4.6097   12.7352   -1.6343 N.ar    1  UNL1       -0.2855
     23 C          -4.3489   11.3979   -1.7997 C.ar    1  UNL1        0.1004
     24 N          -5.3303   10.7263   -2.3251 N.ar    1  UNL1       -0.2306
     25 C          -6.3630   11.6939   -2.5409 C.ar    1  UNL1        0.1473
     26 C          -7.7140   11.5813   -3.0830 C.ar    1  UNL1        0.1472
     27 N          -8.1935   10.4328   -3.5988 N.pl3   1  UNL1       -0.3413
     28 N          -8.4661   12.7128   -3.1200 N.ar    1  UNL1       -0.2188
     29 C          -7.9102   13.8508   -2.6790 C.ar    1  UNL1        0.1205
     30 N          -6.6807   14.1013   -2.1671 N.ar    1  UNL1       -0.2159
     31 C          -5.9291   12.9449   -2.1160 C.ar    1  UNL1        0.1674
     32 H          -5.4593   16.4175   -0.3186 H       1  UNL1        0.0631
     33 H          -4.0880   17.5630   -0.3292 H       1  UNL1        0.0631
     34 H          -3.1043   15.4784    1.1881 H       1  UNL1        0.0650
     35 H          -2.3329   16.6783   -1.2320 H       1  UNL1        0.0694
     36 H          -3.9253   15.3112   -2.4992 H       1  UNL1        0.0667
     37 H          -2.7873   13.1371   -0.6146 H       1  UNL1        0.0866
     38 H          -3.4106   10.9433   -1.5179 H       1  UNL1        0.1030
     39 H          -8.5529   14.7164   -2.7429 H       1  UNL1        0.1048
     40 H          -8.4546    9.6739   -2.9856 H       1  UNL1        0.1438
     41 H          -8.2917   10.3305   -4.5988 H       1  UNL1        0.1438
     42 H          -2.3793   13.4868   -3.2945 H       1  UNL1        0.2101
@<TRIPOS>BOND
     1     1     2    1
     2     1     3    1
     3     1     4    1
     4     1     8    1
     5     5     6    1
     6     5     7    1
     7     5     8    1
     8     5     9    1
     9     9    10    1
    10    10    11    1
    11    11    12    1
    12    11    13    1
    13    12    21    1
    14    13    14    1
    15    13    19    1
    16    14    15    1
    17    15    16    1
    18    15    17    1
    19    15    18    1
    20    19    20    1
    21    19    21    1
    22    21    22    1
    23    22    23   ar
    24    22    31   ar
    25    23    24   ar
    26    24    25   ar
    27    25    26   ar
    28    25    31   ar
    29    26    27    1
    30    26    28   ar
    31    28    29   ar
    32    29    30   ar
    33    30    31   ar
    34    32    10    1
    35    33    10    1
    36    11    34    1
    37    13    35    1
    38    19    36    1
    39    21    37    1
    40    38    23    1
    41    39    29    1
    42    40    27    1
    43    41    27    1
    44    42    20    1
@<TRIPOS>SUBSTRUCTURE
     1 UNL1        1 TEMP              0 ****  ****    0 ROOT

########## Name:	10	3327.47  0.577876
@<TRIPOS>MOLECULE
af2_protein.mol210	
 42 44 1 0 0
SMALL
GASTEIGER


@<TRIPOS>ATOM
      1 P          -2.7009    8.8995    0.7362 P.3     1  UNL1        0.0544
      2 O          -2.4362    8.0255    1.8968 O.co2   1  UNL1       -0.6615
      3 O          -3.8719    8.4834   -0.1081 O.co2   1  UNL1       -0.6615
      4 O          -1.4916    9.2231   -0.0561 O.co2   1  UNL1       -0.6615
      5 P          -4.0349   11.7391    0.8631 P.3     1  UNL1        0.2491
      6 O          -5.1757   11.1911    0.0711 O.co2   1  UNL1       -0.6337
      7 O          -3.1614   12.7653    0.2320 O.co2   1  UNL1       -0.6337
      8 O          -3.1846   10.3361    1.3783 O.3     1  UNL1       -0.0930
      9 O          -4.6672   12.3576    2.2299 O.3     1  UNL1       -0.2057
     10 C          -5.7660   13.2464    2.1840 C.3     1  UNL1        0.1232
     11 C          -5.3318   14.3802    1.3022 C.3     1  UNL1        0.1214
     12 O          -5.9690   14.1569    0.0400 O.3     1  UNL1       -0.3453
     13 C          -5.8154   15.7671    1.8072 C.3     1  UNL1        0.1593
     14 O          -4.8287   16.7799    1.4570 O.3     1  UNL1       -0.2421
     15 P          -3.2479   16.7197    2.1005 P.3     1  UNL1       -0.0004
     16 O          -3.0841   18.1220    2.5578 O.co2   1  UNL1       -0.6646
     17 O          -3.3785   15.7129    3.1845 O.co2   1  UNL1       -0.6646
     18 O          -2.3607   16.2632    0.9876 O.co2   1  UNL1       -0.6646
     19 C          -7.0971   15.9391    1.0010 C.3     1  UNL1        0.1329
     20 O          -7.4766   17.3312    0.9257 O.3     1  UNL1       -0.3845
     21 C          -6.5336   15.4052   -0.3308 C.3     1  UNL1        0.1668
     22 N          -7.5181   15.0634   -1.3821 N.ar    1  UNL1       -0.2855
     23 C          -7.5812   15.7274   -2.5816 C.ar    1  UNL1        0.1004
     24 N          -8.5148   15.2980   -3.3780 N.ar    1  UNL1       -0.2306
     25 C          -9.1533   14.2386   -2.6573 C.ar    1  UNL1        0.1473
     26 C         -10.2560   13.3452   -3.0003 C.ar    1  UNL1        0.1472
     27 N         -10.9641   13.4738   -4.1392 N.pl3   1  UNL1       -0.3413
     28 N         -10.6028   12.4040   -2.0833 N.ar    1  UNL1       -0.2188
     29 C          -9.9264   12.3763   -0.9255 C.ar    1  UNL1        0.1205
     30 N          -8.9026   13.1405   -0.4739 N.ar    1  UNL1       -0.2159
     31 C          -8.5440   14.0820   -1.4170 C.ar    1  UNL1        0.1674
     32 H          -6.6395   12.7494    1.7620 H       1  UNL1        0.0631
     33 H          -5.9915   13.6150    3.1846 H       1  UNL1        0.0631
     34 H          -4.2481   14.3763    1.1855 H       1  UNL1        0.0650
     35 H          -6.0149   15.7559    2.8787 H       1  UNL1        0.0694
     36 H          -7.9057   15.3153    1.3817 H       1  UNL1        0.0667
     37 H          -5.7676   16.0747   -0.7220 H       1  UNL1        0.0866
     38 H          -6.9137   16.5358   -2.8412 H       1  UNL1        0.1030
     39 H         -10.2542   11.6139   -0.2344 H       1  UNL1        0.1048
     40 H         -10.5586   13.1933   -5.0206 H       1  UNL1        0.1438
     41 H         -11.9006   13.8509   -4.1116 H       1  UNL1        0.1438
     42 H          -7.9540   17.4894    0.1080 H       1  UNL1        0.2101
@<TRIPOS>BOND
     1     1     2    1
     2     1     3    1
     3     1     4    1
     4     1     8    1
     5     5     6    1
     6     5     7    1
     7     5     8    1
     8     5     9    1
     9     9    10    1
    10    10    11    1
    11    11    12    1
    12    11    13    1
    13    12    21    1
    14    13    14    1
    15    13    19    1
    16    14    15    1
    17    15    16    1
    18    15    17    1
    19    15    18    1
    20    19    20    1
    21    19    21    1
    22    21    22    1
    23    22    23   ar
    24    22    31   ar
    25    23    24   ar
    26    24    25   ar
    27    25    26   ar
    28    25    31   ar
    29    26    27    1
    30    26    28   ar
    31    28    29   ar
    32    29    30   ar
    33    30    31   ar
    34    32    10    1
    35    33    10    1
    36    11    34    1
    37    13    35    1
    38    19    36    1
    39    21    37    1
    40    38    23    1
    41    39    29    1
    42    40    27    1
    43    41    27    1
    44    42    20    1
@<TRIPOS>SUBSTRUCTURE
     1 UNL1        1 TEMP              0 ****  ****    0 ROOT

########## Name:	11	3248.51  0.537982
@<TRIPOS>MOLECULE
af2_protein.mol211	
 42 44 1 0 0
SMALL
GASTEIGER


@<TRIPOS>ATOM
      1 P          -1.9233   12.4387   -4.5543 P.3     1  UNL1        0.0544
      2 O          -0.7018   11.6106   -4.6095 O.co2   1  UNL1       -0.6615
      3 O          -3.1285   11.7418   -3.9898 O.co2   1  UNL1       -0.6615
      4 O          -2.2045   13.1730   -5.8100 O.co2   1  UNL1       -0.6615
      5 P          -2.4868   14.7137   -2.4649 P.3     1  UNL1        0.2491
      6 O          -3.6247   13.8972   -1.9474 O.co2   1  UNL1       -0.6337
      7 O          -2.7901   16.0001   -3.1487 O.co2   1  UNL1       -0.6337
      8 O          -1.6026   13.6085   -3.4414 O.3     1  UNL1       -0.0930
      9 O          -1.5088   15.0113   -1.1979 O.3     1  UNL1       -0.2057
     10 C          -2.0271   15.5195    0.0155 C.3     1  UNL1        0.1232
     11 C          -2.7371   16.7901   -0.3492 C.3     1  UNL1        0.1214
     12 O          -4.1322   16.4694   -0.3496 O.3     1  UNL1       -0.3453
     13 C          -2.5396   17.9222    0.6956 C.3     1  UNL1        0.1593
     14 O          -2.5399   19.2114    0.0172 O.3     1  UNL1       -0.2421
     15 P          -1.3335   19.5964   -1.1287 P.3     1  UNL1       -0.0004
     16 O          -0.9308   20.9459   -0.6603 O.co2   1  UNL1       -0.6646
     17 O          -0.3275   18.5259   -0.9107 O.co2   1  UNL1       -0.6646
     18 O          -1.9888   19.5135   -2.4694 O.co2   1  UNL1       -0.6646
     19 C          -3.7869   17.7467    1.5534 C.3     1  UNL1        0.1329
     20 O          -4.0837   18.9560    2.2863 O.3     1  UNL1       -0.3845
     21 C          -4.7642   17.5057    0.3860 C.3     1  UNL1        0.1668
     22 N          -6.0923   16.9510    0.7318 N.ar    1  UNL1       -0.2855
     23 C          -7.2596   17.6447    0.5316 C.ar    1  UNL1        0.1004
     24 N          -8.3283   17.0049    0.9041 N.ar    1  UNL1       -0.2306
     25 C          -7.8498   15.7532    1.4077 C.ar    1  UNL1        0.1473
     26 C          -8.5395   14.5897    1.9575 C.ar    1  UNL1        0.1472
     27 N          -9.8689   14.5725    2.1754 N.pl3   1  UNL1       -0.3413
     28 N          -7.7745   13.5263    2.3197 N.ar    1  UNL1       -0.2188
     29 C          -6.4458   13.6281    2.1680 C.ar    1  UNL1        0.1205
     30 N          -5.6791   14.6373    1.6883 N.ar    1  UNL1       -0.2159
     31 C          -6.4636   15.7064    1.3061 C.ar    1  UNL1        0.1674
     32 H          -2.7240   14.8082    0.4587 H       1  UNL1        0.0631
     33 H          -1.2145   15.7305    0.7106 H       1  UNL1        0.0631
     34 H          -2.4257   17.1282   -1.3376 H       1  UNL1        0.0650
     35 H          -1.6297   17.7761    1.2774 H       1  UNL1        0.0694
     36 H          -3.7124   16.8794    2.2094 H       1  UNL1        0.0667
     37 H          -4.8674   18.4039   -0.2229 H       1  UNL1        0.0866
     38 H          -7.2878   18.6353    0.1022 H       1  UNL1        0.1030
     39 H          -5.8918   12.7559    2.4822 H       1  UNL1        0.1048
     40 H         -10.5074   14.4922    1.3969 H       1  UNL1        0.1438
     41 H         -10.2271   14.6401    3.1173 H       1  UNL1        0.1438
     42 H          -5.0300   19.0157    2.4361 H       1  UNL1        0.2101
@<TRIPOS>BOND
     1     1     2    1
     2     1     3    1
     3     1     4    1
     4     1     8    1
     5     5     6    1
     6     5     7    1
     7     5     8    1
     8     5     9    1
     9     9    10    1
    10    10    11    1
    11    11    12    1
    12    11    13    1
    13    12    21    1
    14    13    14    1
    15    13    19    1
    16    14    15    1
    17    15    16    1
    18    15    17    1
    19    15    18    1
    20    19    20    1
    21    19    21    1
    22    21    22    1
    23    22    23   ar
    24    22    31   ar
    25    23    24   ar
    26    24    25   ar
    27    25    26   ar
    28    25    31   ar
    29    26    27    1
    30    26    28   ar
    31    28    29   ar
    32    29    30   ar
    33    30    31   ar
    34    32    10    1
    35    33    10    1
    36    11    34    1
    37    13    35    1
    38    19    36    1
    39    21    37    1
    40    38    23    1
    41    39    29    1
    42    40    27    1
    43    41    27    1
    44    42    20    1
@<TRIPOS>SUBSTRUCTURE
     1 UNL1        1 TEMP              0 ****  ****    0 ROOT

########## Name:	12	3151.17  0.623746
@<TRIPOS>MOLECULE
af2_protein.mol212	
 42 44 1 0 0
SMALL
GASTEIGER


@<TRIPOS>ATOM
      1 P          -3.7492   16.1409    5.6459 P.3     1  UNL1        0.0544
      2 O          -4.4889   15.9402    6.9082 O.co2   1  UNL1       -0.6615
      3 O          -2.8592   14.9966    5.2518 O.co2   1  UNL1       -0.6615
      4 O          -3.0860   17.4618    5.5457 O.co2   1  UNL1       -0.6615
      5 P          -4.9789   15.9380    2.7639 P.3     1  UNL1        0.2491
      6 O          -4.0869   14.7675    2.5125 O.co2   1  UNL1       -0.6337
      7 O          -4.7405   17.1896    1.9951 O.co2   1  UNL1       -0.6337
      8 O          -4.8993   16.1530    4.4681 O.3     1  UNL1       -0.0930
      9 O          -6.5022   15.4348    2.4871 O.3     1  UNL1       -0.2057
     10 C          -6.8355   14.7510    1.2951 C.3     1  UNL1        0.1232
     11 C          -6.4226   15.6630    0.1773 C.3     1  UNL1        0.1214
     12 O          -5.1951   15.1274   -0.3280 O.3     1  UNL1       -0.3453
     13 C          -7.4271   15.6717   -1.0072 C.3     1  UNL1        0.1593
     14 O          -7.4395   16.9928   -1.6207 O.3     1  UNL1       -0.2421
     15 P          -7.9493   18.3623   -0.7369 P.3     1  UNL1       -0.0004
     16 O          -8.8890   18.9799   -1.7054 O.co2   1  UNL1       -0.6646
     17 O          -8.5847   17.7558    0.4607 O.co2   1  UNL1       -0.6646
     18 O          -6.7114   19.1334   -0.4099 O.co2   1  UNL1       -0.6646
     19 C          -6.7958   14.6371   -1.9310 C.3     1  UNL1        0.1329
     20 O          -7.2600   14.8059   -3.2888 O.3     1  UNL1       -0.3845
     21 C          -5.3392   15.1041   -1.7398 C.3     1  UNL1        0.1668
     22 N          -4.2772   14.1815   -2.2006 N.ar    1  UNL1       -0.2855
     23 C          -3.4150   14.4955   -3.2212 C.ar    1  UNL1        0.1004
     24 N          -2.5547   13.5604   -3.4965 N.ar    1  UNL1       -0.2306
     25 C          -2.8543   12.5043   -2.5778 C.ar    1  UNL1        0.1473
     26 C          -2.2483   11.1940   -2.3591 C.ar    1  UNL1        0.1472
     27 N          -1.2691   10.7089   -3.1471 N.pl3   1  UNL1       -0.3413
     28 N          -2.7621   10.4296   -1.3597 N.ar    1  UNL1       -0.2188
     29 C          -3.7976   10.9204   -0.6630 C.ar    1  UNL1        0.1205
     30 N          -4.4594   12.0988   -0.7625 N.ar    1  UNL1       -0.2159
     31 C          -3.9210   12.8769   -1.7672 C.ar    1  UNL1        0.1674
     32 H          -6.2946   13.8065    1.2348 H       1  UNL1        0.0631
     33 H          -7.9096   14.5709    1.2545 H       1  UNL1        0.0631
     34 H          -6.2688   16.6754    0.5511 H       1  UNL1        0.0650
     35 H          -8.4245   15.3686   -0.6888 H       1  UNL1        0.0694
     36 H          -6.9493   13.6200   -1.5703 H       1  UNL1        0.0667
     37 H          -5.1947   16.0997   -2.1594 H       1  UNL1        0.0866
     38 H          -3.4483   15.4370   -3.7495 H       1  UNL1        0.1030
     39 H          -4.1678   10.2635    0.1102 H       1  UNL1        0.1048
     40 H          -0.3309   11.0749   -3.0703 H       1  UNL1        0.1438
     41 H          -1.4733    9.9793   -3.8150 H       1  UNL1        0.1438
     42 H          -6.5802   14.5105   -3.8989 H       1  UNL1        0.2101
@<TRIPOS>BOND
     1     1     2    1
     2     1     3    1
     3     1     4    1
     4     1     8    1
     5     5     6    1
     6     5     7    1
     7     5     8    1
     8     5     9    1
     9     9    10    1
    10    10    11    1
    11    11    12    1
    12    11    13    1
    13    12    21    1
    14    13    14    1
    15    13    19    1
    16    14    15    1
    17    15    16    1
    18    15    17    1
    19    15    18    1
    20    19    20    1
    21    19    21    1
    22    21    22    1
    23    22    23   ar
    24    22    31   ar
    25    23    24   ar
    26    24    25   ar
    27    25    26   ar
    28    25    31   ar
    29    26    27    1
    30    26    28   ar
    31    28    29   ar
    32    29    30   ar
    33    30    31   ar
    34    32    10    1
    35    33    10    1
    36    11    34    1
    37    13    35    1
    38    19    36    1
    39    21    37    1
    40    38    23    1
    41    39    29    1
    42    40    27    1
    43    41    27    1
    44    42    20    1
@<TRIPOS>SUBSTRUCTURE
     1 UNL1        1 TEMP              0 ****  ****    0 ROOT

########## Name:	13	3793.41  0.654443
@<TRIPOS>MOLECULE
af2_protein.mol213	
 42 44 1 0 0
SMALL
GASTEIGER


@<TRIPOS>ATOM
      1 P          -4.5306   16.7831   -5.2505 P.3     1  UNL1        0.0544
      2 O          -3.1869   16.4362   -5.7557 O.co2   1  UNL1       -0.6615
      3 O          -5.5714   15.7192   -5.4550 O.co2   1  UNL1       -0.6615
      4 O          -4.9874   18.1352   -5.6478 O.co2   1  UNL1       -0.6615
      5 P          -5.3939   16.7905   -2.2317 P.3     1  UNL1        0.2491
      6 O          -6.3495   15.6876   -2.5470 O.co2   1  UNL1       -0.6337
      7 O          -5.9448   18.1161   -1.8397 O.co2   1  UNL1       -0.6337
      8 O          -4.3722   16.8525   -3.6135 O.3     1  UNL1       -0.0930
      9 O          -4.4305   16.2489   -1.0362 O.3     1  UNL1       -0.2057
     10 C          -4.9783   15.6628    0.1281 C.3     1  UNL1        0.1232
     11 C          -5.9133   16.6900    0.6958 C.3     1  UNL1        0.1214
     12 O          -7.2300   16.2565    0.3388 O.3     1  UNL1       -0.3453
     13 C          -5.8725   16.7629    2.2467 C.3     1  UNL1        0.1593
     14 O          -6.1255   18.1327    2.6729 O.3     1  UNL1       -0.2421
     15 P          -5.0535   19.3925    2.2483 P.3     1  UNL1       -0.0004
     16 O          -4.8727   20.0544    3.5643 O.co2   1  UNL1       -0.6646
     17 O          -3.8683   18.6523    1.7454 O.co2   1  UNL1       -0.6646
     18 O          -5.7397   20.1836    1.1819 O.co2   1  UNL1       -0.6646
     19 C          -7.0332   15.8453    2.6113 C.3     1  UNL1        0.1329
     20 O          -7.5052   16.1169    3.9497 O.3     1  UNL1       -0.3845
     21 C          -8.0015   16.3557    1.5260 C.3     1  UNL1        0.1668
     22 N          -9.1972   15.5260    1.2554 N.ar    1  UNL1       -0.2855
     23 C         -10.4747   15.9689    1.4910 C.ar    1  UNL1        0.1004
     24 N         -11.3992   15.1011    1.2039 N.ar    1  UNL1       -0.2306
     25 C         -10.6895   13.9535    0.7257 C.ar    1  UNL1        0.1473
     26 C         -11.1425   12.6563    0.2318 C.ar    1  UNL1        0.1472
     27 N         -12.4384   12.2881    0.2481 N.pl3   1  UNL1       -0.3413
     28 N         -10.1896   11.7825   -0.1870 N.ar    1  UNL1       -0.2188
     29 C          -8.9065   12.1622   -0.0973 C.ar    1  UNL1        0.1205
     30 N          -8.3479   13.3149    0.3450 N.ar    1  UNL1       -0.2159
     31 C          -9.3218   14.2040    0.7518 C.ar    1  UNL1        0.1674
     32 H          -5.5216   14.7522   -0.1242 H       1  UNL1        0.0631
     33 H          -4.1865   15.4407    0.8435 H       1  UNL1        0.0631
     34 H          -5.7071   17.6698    0.2649 H       1  UNL1        0.0650
     35 H          -4.9275   16.3891    2.6406 H       1  UNL1        0.0694
     36 H          -6.7816   14.7939    2.4724 H       1  UNL1        0.0667
     37 H          -8.2849   17.3907    1.7171 H       1  UNL1        0.0866
     38 H         -10.6929   16.9523    1.8808 H       1  UNL1        0.1030
     39 H          -8.1965   11.4221   -0.4356 H       1  UNL1        0.1048
     40 H         -13.0850   12.6860   -0.4179 H       1  UNL1        0.1438
     41 H         -12.7633   11.6142    0.9266 H       1  UNL1        0.1438
     42 H          -8.4404   15.9081    4.0081 H       1  UNL1        0.2101
@<TRIPOS>BOND
     1     1     2    1
     2     1     3    1
     3     1     4    1
     4     1     8    1
     5     5     6    1
     6     5     7    1
     7     5     8    1
     8     5     9    1
     9     9    10    1
    10    10    11    1
    11    11    12    1
    12    11    13    1
    13    12    21    1
    14    13    14    1
    15    13    19    1
    16    14    15    1
    17    15    16    1
    18    15    17    1
    19    15    18    1
    20    19    20    1
    21    19    21    1
    22    21    22    1
    23    22    23   ar
    24    22    31   ar
    25    23    24   ar
    26    24    25   ar
    27    25    26   ar
    28    25    31   ar
    29    26    27    1
    30    26    28   ar
    31    28    29   ar
    32    29    30   ar
    33    30    31   ar
    34    32    10    1
    35    33    10    1
    36    11    34    1
    37    13    35    1
    38    19    36    1
    39    21    37    1
    40    38    23    1
    41    39    29    1
    42    40    27    1
    43    41    27    1
    44    42    20    1
@<TRIPOS>SUBSTRUCTURE
     1 UNL1        1 TEMP              0 ****  ****    0 ROOT

########## Name:	14	3232.61  0.612953
@<TRIPOS>MOLECULE
af2_protein.mol214	
 42 44 1 0 0
SMALL
GASTEIGER


@<TRIPOS>ATOM
      1 P          -2.8043    9.8370   -1.5986 P.3     1  UNL1        0.0544
      2 O          -1.4503    9.2474   -1.6087 O.co2   1  UNL1       -0.6615
      3 O          -3.5442    9.6864   -0.2999 O.co2   1  UNL1       -0.6615
      4 O          -3.6196    9.4812   -2.7833 O.co2   1  UNL1       -0.6615
      5 P          -3.4529   12.9029   -1.4021 P.3     1  UNL1        0.2491
      6 O          -4.1074   12.6361   -0.0870 O.co2   1  UNL1       -0.6337
      7 O          -4.3035   13.3403   -2.5421 O.co2   1  UNL1       -0.6337
      8 O          -2.5691   11.4620   -1.7176 O.3     1  UNL1       -0.0930
      9 O          -2.3105   14.0321   -1.1368 O.3     1  UNL1       -0.2057
     10 C          -2.6150   15.2221   -0.4365 C.3     1  UNL1        0.1232
     11 C          -3.7476   15.8556   -1.1898 C.3     1  UNL1        0.1214
     12 O          -4.9263   15.5755   -0.4273 O.3     1  UNL1       -0.3453
     13 C          -3.6320   17.4017   -1.2812 C.3     1  UNL1        0.1593
     14 O          -4.2048   17.8555   -2.5413 O.3     1  UNL1       -0.2421
     15 P          -3.5242   17.3782   -4.0332 P.3     1  UNL1       -0.0004
     16 O          -3.4407   18.6869   -4.7280 O.co2   1  UNL1       -0.6646
     17 O          -2.2208   16.7969   -3.6223 O.co2   1  UNL1       -0.6646
     18 O          -4.4562   16.3633   -4.6121 O.co2   1  UNL1       -0.6646
     19 C          -4.4904   17.8277   -0.0964 C.3     1  UNL1        0.1329
     20 O          -4.9335   19.1949   -0.2452 O.3     1  UNL1       -0.3845
     21 C          -5.6227   16.8085   -0.3310 C.3     1  UNL1        0.1668
     22 N          -6.5767   16.6035    0.7822 N.ar    1  UNL1       -0.2855
     23 C          -7.9084   16.9209    0.6842 C.ar    1  UNL1        0.1004
     24 N          -8.5921   16.6826    1.7640 N.ar    1  UNL1       -0.2306
     25 C          -7.6399   16.1510    2.6914 C.ar    1  UNL1        0.1473
     26 C          -7.7706   15.6734    4.0650 C.ar    1  UNL1        0.1472
     27 N          -8.9231   15.7654    4.7566 N.pl3   1  UNL1       -0.3413
     28 N          -6.6513   15.1889    4.6646 N.ar    1  UNL1       -0.2188
     29 C          -5.5075   15.2037    3.9645 C.ar    1  UNL1        0.1205
     30 N          -5.2407   15.6220    2.7034 N.ar    1  UNL1       -0.2159
     31 C          -6.3850   16.0960    2.0947 C.ar    1  UNL1        0.1674
     32 H          -2.9181   14.9948    0.5856 H       1  UNL1        0.0631
     33 H          -1.7503   15.8857   -0.4321 H       1  UNL1        0.0631
     34 H          -3.8293   15.4221   -2.1867 H       1  UNL1        0.0650
     35 H          -2.6000   17.7336   -1.1678 H       1  UNL1        0.0694
     36 H          -3.9839   17.6638    0.8547 H       1  UNL1        0.0667
     37 H          -6.1524   17.0264   -1.2583 H       1  UNL1        0.0866
     38 H          -8.3496   17.3326   -0.2115 H       1  UNL1        0.1030
     39 H          -4.6521   14.8157    4.4974 H       1  UNL1        0.1048
     40 H          -9.6905   15.1439    4.5445 H       1  UNL1        0.1438
     41 H          -9.0199   16.4560    5.4871 H       1  UNL1        0.1438
     42 H          -5.7772   19.3083    0.1986 H       1  UNL1        0.2101
@<TRIPOS>BOND
     1     1     2    1
     2     1     3    1
     3     1     4    1
     4     1     8    1
     5     5     6    1
     6     5     7    1
     7     5     8    1
     8     5     9    1
     9     9    10    1
    10    10    11    1
    11    11    12    1
    12    11    13    1
    13    12    21    1
    14    13    14    1
    15    13    19    1
    16    14    15    1
    17    15    16    1
    18    15    17    1
    19    15    18    1
    20    19    20    1
    21    19    21    1
    22    21    22    1
    23    22    23   ar
    24    22    31   ar
    25    23    24   ar
    26    24    25   ar
    27    25    26   ar
    28    25    31   ar
    29    26    27    1
    30    26    28   ar
    31    28    29   ar
    32    29    30   ar
    33    30    31   ar
    34    32    10    1
    35    33    10    1
    36    11    34    1
    37    13    35    1
    38    19    36    1
    39    21    37    1
    40    38    23    1
    41    39    29    1
    42    40    27    1
    43    41    27    1
    44    42    20    1
@<TRIPOS>SUBSTRUCTURE
     1 UNL1        1 TEMP              0 ****  ****    0 ROOT

########## Name:	15	3946.78  0.565656
@<TRIPOS>MOLECULE
af2_protein.mol215	
 42 44 1 0 0
SMALL
GASTEIGER


@<TRIPOS>ATOM
      1 P         -10.8892   17.7036    1.9041 P.3     1  UNL1        0.0544
      2 O         -12.2397   17.2931    2.3384 O.co2   1  UNL1       -0.6615
      3 O          -9.8513   17.6942    2.9901 O.co2   1  UNL1       -0.6615
      4 O         -10.8742   18.9403    1.0885 O.co2   1  UNL1       -0.6615
      5 P          -8.8983   15.9378    0.2377 P.3     1  UNL1        0.2491
      6 O          -7.9747   15.9486    1.4107 O.co2   1  UNL1       -0.6337
      7 O          -8.4761   16.6407   -1.0041 O.co2   1  UNL1       -0.6337
      8 O         -10.3838   16.5155    0.8828 O.3     1  UNL1       -0.0930
      9 O          -9.1878   14.3754   -0.1168 O.3     1  UNL1       -0.2057
     10 C          -8.1245   13.4547   -0.2613 C.3     1  UNL1        0.1232
     11 C          -7.2343   14.0292   -1.3240 C.3     1  UNL1        0.1214
     12 O          -6.1197   14.6000   -0.6306 O.3     1  UNL1       -0.3453
     13 C          -6.6587   12.9543   -2.2860 C.3     1  UNL1        0.1593
     14 O          -6.4980   13.5306   -3.6142 O.3     1  UNL1       -0.2421
     15 P          -7.8516   14.0826   -4.4972 P.3     1  UNL1       -0.0004
     16 O          -7.5989   13.4455   -5.8135 O.co2   1  UNL1       -0.6646
     17 O          -8.9904   13.5168   -3.7299 O.co2   1  UNL1       -0.6646
     18 O          -7.8025   15.5755   -4.4478 O.co2   1  UNL1       -0.6646
     19 C          -5.3092   12.6751   -1.6355 C.3     1  UNL1        0.1329
     20 O          -4.3930   12.0812   -2.5819 O.3     1  UNL1       -0.3845
     21 C          -4.9653   14.1441   -1.3191 C.3     1  UNL1        0.1668
     22 N          -3.8557   14.3792   -0.3680 N.ar    1  UNL1       -0.2855
     23 C          -2.6899   15.0064   -0.7306 C.ar    1  UNL1        0.1004
     24 N          -1.8239   15.1161    0.2329 N.ar    1  UNL1       -0.2306
     25 C          -2.4546   14.5068    1.3643 C.ar    1  UNL1        0.1473
     26 C          -2.0208   14.3204    2.7460 C.ar    1  UNL1        0.1472
     27 N          -0.7858   14.6546    3.1681 N.pl3   1  UNL1       -0.3413
     28 N          -2.8937   13.7191    3.5966 N.ar    1  UNL1       -0.2188
     29 C          -4.0765   13.3217    3.1050 C.ar    1  UNL1        0.1205
     30 N          -4.6008   13.4183    1.8592 N.ar    1  UNL1       -0.2159
     31 C          -3.7165   14.0456    1.0054 C.ar    1  UNL1        0.1674
     32 H          -7.5794   13.3532    0.6772 H       1  UNL1        0.0631
     33 H          -8.5089   12.4853   -0.5781 H       1  UNL1        0.0631
     34 H          -7.7638   14.7974   -1.8876 H       1  UNL1        0.0650
     35 H          -7.2840   12.0619   -2.3097 H       1  UNL1        0.0694
     36 H          -5.4082   12.0749   -0.7311 H       1  UNL1        0.0667
     37 H          -4.8138   14.7116   -2.2373 H       1  UNL1        0.0866
     38 H          -2.5080   15.3764   -1.7288 H       1  UNL1        0.1030
     39 H          -4.7220   12.8422    3.8260 H       1  UNL1        0.1048
     40 H          -0.5424   15.6260    3.2993 H       1  UNL1        0.1438
     41 H          -0.1032   13.9336    3.3532 H       1  UNL1        0.1438
     42 H          -3.4929   12.3214   -2.3503 H       1  UNL1        0.2101
@<TRIPOS>BOND
     1     1     2    1
     2     1     3    1
     3     1     4    1
     4     1     8    1
     5     5     6    1
     6     5     7    1
     7     5     8    1
     8     5     9    1
     9     9    10    1
    10    10    11    1
    11    11    12    1
    12    11    13    1
    13    12    21    1
    14    13    14    1
    15    13    19    1
    16    14    15    1
    17    15    16    1
    18    15    17    1
    19    15    18    1
    20    19    20    1
    21    19    21    1
    22    21    22    1
    23    22    23   ar
    24    22    31   ar
    25    23    24   ar
    26    24    25   ar
    27    25    26   ar
    28    25    31   ar
    29    26    27    1
    30    26    28   ar
    31    28    29   ar
    32    29    30   ar
    33    30    31   ar
    34    32    10    1
    35    33    10    1
    36    11    34    1
    37    13    35    1
    38    19    36    1
    39    21    37    1
    40    38    23    1
    41    39    29    1
    42    40    27    1
    43    41    27    1
    44    42    20    1
@<TRIPOS>SUBSTRUCTURE
     1 UNL1        1 TEMP              0 ****  ****    0 ROOT

########## Name:	16	3265.55  0.589123
@<TRIPOS>MOLECULE
af2_protein.mol216	
 42 44 1 0 0
SMALL
GASTEIGER


@<TRIPOS>ATOM
      1 P         -10.9703   17.9042    1.8723 P.3     1  UNL1        0.0544
      2 O         -12.3109   17.4706    2.3148 O.co2   1  UNL1       -0.6615
      3 O          -9.9363   17.9541    2.9610 O.co2   1  UNL1       -0.6615
      4 O         -10.9853   19.1166    1.0210 O.co2   1  UNL1       -0.6615
      5 P          -8.9272   16.1443    0.2637 P.3     1  UNL1        0.2491
      6 O          -8.0084   16.2139    1.4384 O.co2   1  UNL1       -0.6337
      7 O          -8.5195   16.8218   -0.9970 O.co2   1  UNL1       -0.6337
      8 O         -10.4299   16.7007    0.8876 O.3     1  UNL1       -0.0930
      9 O          -9.1739   14.5651   -0.0458 O.3     1  UNL1       -0.2057
     10 C          -8.0859   13.6693   -0.1604 C.3     1  UNL1        0.1232
     11 C          -7.2076   14.2362   -1.2371 C.3     1  UNL1        0.1214
     12 O          -6.1110   14.8565   -0.5575 O.3     1  UNL1       -0.3453
     13 C          -6.6002   13.1494   -2.1656 C.3     1  UNL1        0.1593
     14 O          -6.4503   13.6909   -3.5096 O.3     1  UNL1       -0.2421
     15 P          -7.8150   14.1806   -4.4121 P.3     1  UNL1       -0.0004
     16 O          -7.5408   13.5124   -5.7086 O.co2   1  UNL1       -0.6646
     17 O          -8.9410   13.6072   -3.6317 O.co2   1  UNL1       -0.6646
     18 O          -7.8058   15.6751   -4.4062 O.co2   1  UNL1       -0.6646
     19 C          -5.2460   12.9255   -1.5036 C.3     1  UNL1        0.1329
     20 O          -4.3111   12.3289   -2.4298 O.3     1  UNL1       -0.3845
     21 C          -4.9425   14.4117   -1.2293 C.3     1  UNL1        0.1668
     22 N          -3.8428   14.7040   -0.2825 N.ar    1  UNL1       -0.2855
     23 C          -2.6929   15.3512   -0.6600 C.ar    1  UNL1        0.1004
     24 N          -1.8335   15.5121    0.3021 N.ar    1  UNL1       -0.2306
     25 C          -2.4517   14.9193    1.4492 C.ar    1  UNL1        0.1473
     26 C          -2.0179   14.7849    2.8368 C.ar    1  UNL1        0.1472
     27 N          -0.7938   15.1641    3.2524 N.pl3   1  UNL1       -0.3413
     28 N          -2.8775   14.1855    3.7023 N.ar    1  UNL1       -0.2188
     29 C          -4.0476   13.7425    3.2194 C.ar    1  UNL1        0.1205
     30 N          -4.5699   13.7888    1.9698 N.ar    1  UNL1       -0.2159
     31 C          -3.6996   14.4144    1.1004 C.ar    1  UNL1        0.1674
     32 H          -7.5416   13.6097    0.7821 H       1  UNL1        0.0631
     33 H          -8.4432   12.6812   -0.4499 H       1  UNL1        0.0631
     34 H          -7.7554   14.9732   -1.8243 H       1  UNL1        0.0650
     35 H          -7.2014   12.2403   -2.1650 H       1  UNL1        0.0694
     36 H          -5.3322   12.3494   -0.5824 H       1  UNL1        0.0667
     37 H          -4.8030   14.9561   -2.1633 H       1  UNL1        0.0866
     38 H          -2.5174   15.6968   -1.6682 H       1  UNL1        0.1030
     39 H          -4.6826   13.2672    3.9523 H       1  UNL1        0.1048
     40 H          -0.5768   16.1451    3.3558 H       1  UNL1        0.1438
     41 H          -0.0928   14.4673    3.4603 H       1  UNL1        0.1438
     42 H          -3.4184   12.5997   -2.2029 H       1  UNL1        0.2101
@<TRIPOS>BOND
     1     1     2    1
     2     1     3    1
     3     1     4    1
     4     1     8    1
     5     5     6    1
     6     5     7    1
     7     5     8    1
     8     5     9    1
     9     9    10    1
    10    10    11    1
    11    11    12    1
    12    11    13    1
    13    12    21    1
    14    13    14    1
    15    13    19    1
    16    14    15    1
    17    15    16    1
    18    15    17    1
    19    15    18    1
    20    19    20    1
    21    19    21    1
    22    21    22    1
    23    22    23   ar
    24    22    31   ar
    25    23    24   ar
    26    24    25   ar
    27    25    26   ar
    28    25    31   ar
    29    26    27    1
    30    26    28   ar
    31    28    29   ar
    32    29    30   ar
    33    30    31   ar
    34    32    10    1
    35    33    10    1
    36    11    34    1
    37    13    35    1
    38    19    36    1
    39    21    37    1
    40    38    23    1
    41    39    29    1
    42    40    27    1
    43    41    27    1
    44    42    20    1
@<TRIPOS>SUBSTRUCTURE
     1 UNL1        1 TEMP              0 ****  ****    0 ROOT

########## Name:	17	3298.48  0.512775
@<TRIPOS>MOLECULE
af2_protein.mol217	
 42 44 1 0 0
SMALL
GASTEIGER


@<TRIPOS>ATOM
      1 P         -11.4755   17.5926    1.4914 P.3     1  UNL1        0.0544
      2 O         -12.8590   17.1018    1.6526 O.co2   1  UNL1       -0.6615
      3 O         -10.6388   17.5304    2.7376 O.co2   1  UNL1       -0.6615
      4 O         -11.3809   18.8915    0.7852 O.co2   1  UNL1       -0.6615
      5 P          -9.1471   16.0382    0.0698 P.3     1  UNL1        0.2491
      6 O          -8.4387   15.9851    1.3830 O.co2   1  UNL1       -0.6337
      7 O          -8.5534   16.8542   -1.0239 O.co2   1  UNL1       -0.6337
      8 O         -10.7469   16.5099    0.4881 O.3     1  UNL1       -0.0930
      9 O          -9.2966   14.5009   -0.4449 O.3     1  UNL1       -0.2057
     10 C          -8.1812   13.6323   -0.4703 C.3     1  UNL1        0.1232
     11 C          -7.1514   14.3218   -1.3164 C.3     1  UNL1        0.1214
     12 O          -6.2001   14.8722   -0.3993 O.3     1  UNL1       -0.3453
     13 C          -6.3692   13.3494   -2.2409 C.3     1  UNL1        0.1593
     14 O          -6.0121   14.0373   -3.4743 O.3     1  UNL1       -0.2421
     15 P          -7.2202   14.6125   -4.5357 P.3     1  UNL1       -0.0004
     16 O          -6.7164   14.0940   -5.8318 O.co2   1  UNL1       -0.6646
     17 O          -8.4447   13.9472   -4.0223 O.co2   1  UNL1       -0.6646
     18 O          -7.2519   16.0973   -4.3676 O.co2   1  UNL1       -0.6646
     19 C          -5.1386   13.0648   -1.3884 C.3     1  UNL1        0.1329
     20 O          -4.0470   12.5819   -2.2026 O.3     1  UNL1       -0.3845
     21 C          -4.9247   14.5140   -0.9086 C.3     1  UNL1        0.1668
     22 N          -4.0061   14.7089    0.2357 N.ar    1  UNL1       -0.2855
     23 C          -2.8271   15.4033    0.1290 C.ar    1  UNL1        0.1004
     24 N          -2.1444   15.4638    1.2338 N.ar    1  UNL1       -0.2306
     25 C          -2.9289   14.7429    2.1898 C.ar    1  UNL1        0.1473
     26 C          -2.7286   14.4594    3.6081 C.ar    1  UNL1        0.1472
     27 N          -1.6013   14.8004    4.2621 N.pl3   1  UNL1       -0.3413
     28 N          -3.7040   13.7610    4.2469 N.ar    1  UNL1       -0.2188
     29 C          -4.7652   13.3646    3.5290 C.ar    1  UNL1        0.1205
     30 N          -5.0733   13.5444    2.2217 N.ar    1  UNL1       -0.2159
     31 C          -4.0874   14.2693    1.5837 C.ar    1  UNL1        0.1674
     32 H          -7.8000   13.4733    0.5384 H       1  UNL1        0.0631
     33 H          -8.4589   12.6792   -0.9204 H       1  UNL1        0.0631
     34 H          -7.6133   15.1148   -1.9047 H       1  UNL1        0.0650
     35 H          -6.9377   12.4409   -2.4393 H       1  UNL1        0.0694
     36 H          -5.3615   12.3897   -0.5622 H       1  UNL1        0.0667
     37 H          -4.6462   15.1594   -1.7417 H       1  UNL1        0.0866
     38 H          -2.4955   15.8595   -0.7921 H       1  UNL1        0.1030
     39 H          -5.5004   12.8060    4.0891 H       1  UNL1        0.1048
     40 H          -1.4307   15.7657    4.5055 H       1  UNL1        0.1438
     41 H          -0.9264   14.0907    4.5090 H       1  UNL1        0.1438
     42 H          -3.2121   12.8333   -1.8009 H       1  UNL1        0.2101
@<TRIPOS>BOND
     1     1     2    1
     2     1     3    1
     3     1     4    1
     4     1     8    1
     5     5     6    1
     6     5     7    1
     7     5     8    1
     8     5     9    1
     9     9    10    1
    10    10    11    1
    11    11    12    1
    12    11    13    1
    13    12    21    1
    14    13    14    1
    15    13    19    1
    16    14    15    1
    17    15    16    1
    18    15    17    1
    19    15    18    1
    20    19    20    1
    21    19    21    1
    22    21    22    1
    23    22    23   ar
    24    22    31   ar
    25    23    24   ar
    26    24    25   ar
    27    25    26   ar
    28    25    31   ar
    29    26    27    1
    30    26    28   ar
    31    28    29   ar
    32    29    30   ar
    33    30    31   ar
    34    32    10    1
    35    33    10    1
    36    11    34    1
    37    13    35    1
    38    19    36    1
    39    21    37    1
    40    38    23    1
    41    39    29    1
    42    40    27    1
    43    41    27    1
    44    42    20    1
@<TRIPOS>SUBSTRUCTURE
     1 UNL1        1 TEMP              0 ****  ****    0 ROOT

########## Name:	18	3249.51  0.573347
@<TRIPOS>MOLECULE
af2_protein.mol218	
 42 44 1 0 0
SMALL
GASTEIGER


@<TRIPOS>ATOM
      1 P         -11.0363   18.7053    1.7057 P.3     1  UNL1        0.0544
      2 O         -12.4484   18.3955    2.0072 O.co2   1  UNL1       -0.6615
      3 O         -10.0944   18.5274    2.8625 O.co2   1  UNL1       -0.6615
      4 O         -10.8462   19.9861    0.9857 O.co2   1  UNL1       -0.6615
      5 P          -9.0808   16.8740    0.0683 P.3     1  UNL1        0.2491
      6 O          -8.2577   16.7212    1.3045 O.co2   1  UNL1       -0.6337
      7 O          -8.4992   17.6142   -1.0842 O.co2   1  UNL1       -0.6337
      8 O         -10.5568   17.5447    0.6412 O.3     1  UNL1       -0.0930
      9 O          -9.4775   15.3723   -0.4196 O.3     1  UNL1       -0.2057
     10 C          -8.4913   14.3675   -0.5510 C.3     1  UNL1        0.1232
     11 C          -7.4710   14.9246   -1.4998 C.3     1  UNL1        0.1214
     12 O          -6.3701   15.3417   -0.6855 O.3     1  UNL1       -0.3453
     13 C          -6.9166   13.8660   -2.4918 C.3     1  UNL1        0.1593
     14 O          -6.5988   14.5107   -3.7589 O.3     1  UNL1       -0.2421
     15 P          -7.8225   15.2438   -4.6978 P.3     1  UNL1       -0.0004
     16 O          -7.5215   14.6737   -6.0345 O.co2   1  UNL1       -0.6646
     17 O          -9.0651   14.7381   -4.0607 O.co2   1  UNL1       -0.6646
     18 O          -7.6460   16.7191   -4.5364 O.co2   1  UNL1       -0.6646
     19 C          -5.6540   13.4195   -1.7646 C.3     1  UNL1        0.1329
     20 O          -4.7203   12.8059   -2.6808 O.3     1  UNL1       -0.3845
     21 C          -5.2086   14.8259   -1.3174 C.3     1  UNL1        0.1668
     22 N          -4.1630   14.8931   -0.2717 N.ar    1  UNL1       -0.2855
     23 C          -2.9210   15.4307   -0.4998 C.ar    1  UNL1        0.1004
     24 N          -2.1294   15.3954    0.5310 N.ar    1  UNL1       -0.2306
     25 C          -2.9008   14.7748    1.5649 C.ar    1  UNL1        0.1473
     26 C          -2.5983   14.4583    2.9578 C.ar    1  UNL1        0.1472
     27 N          -1.3768   14.6469    3.4940 N.pl3   1  UNL1       -0.3413
     28 N          -3.5868   13.8868    3.6950 N.ar    1  UNL1       -0.2188
     29 C          -4.7564   13.6351    3.0890 C.ar    1  UNL1        0.1205
     30 N          -5.1677   13.8620    1.8179 N.ar    1  UNL1       -0.2159
     31 C          -4.1653   14.4585    1.0803 C.ar    1  UNL1        0.1674
     32 H          -8.0351   14.1539    0.4157 H       1  UNL1        0.0631
     33 H          -8.9330   13.4613   -0.9653 H       1  UNL1        0.0631
     34 H          -7.8833   15.7744   -2.0439 H       1  UNL1        0.0650
     35 H          -7.6142   13.0396   -2.6270 H       1  UNL1        0.0694
     36 H          -5.8784   12.7731   -0.9162 H       1  UNL1        0.0667
     37 H          -4.9338   15.4358   -2.1780 H       1  UNL1        0.0866
     38 H          -2.6270   15.8468   -1.4521 H       1  UNL1        0.1030
     39 H          -5.4979   13.1719    3.7231 H       1  UNL1        0.1048
     40 H          -1.0601   15.5805    3.7133 H       1  UNL1        0.1438
     41 H          -0.7777   13.8545    3.6765 H       1  UNL1        0.1438
     42 H          -3.8242   12.9449   -2.3660 H       1  UNL1        0.2101
@<TRIPOS>BOND
     1     1     2    1
     2     1     3    1
     3     1     4    1
     4     1     8    1
     5     5     6    1
     6     5     7    1
     7     5     8    1
     8     5     9    1
     9     9    10    1
    10    10    11    1
    11    11    12    1
    12    11    13    1
    13    12    21    1
    14    13    14    1
    15    13    19    1
    16    14    15    1
    17    15    16    1
    18    15    17    1
    19    15    18    1
    20    19    20    1
    21    19    21    1
    22    21    22    1
    23    22    23   ar
    24    22    31   ar
    25    23    24   ar
    26    24    25   ar
    27    25    26   ar
    28    25    31   ar
    29    26    27    1
    30    26    28   ar
    31    28    29   ar
    32    29    30   ar
    33    30    31   ar
    34    32    10    1
    35    33    10    1
    36    11    34    1
    37    13    35    1
    38    19    36    1
    39    21    37    1
    40    38    23    1
    41    39    29    1
    42    40    27    1
    43    41    27    1
    44    42    20    1
@<TRIPOS>SUBSTRUCTURE
     1 UNL1        1 TEMP              0 ****  ****    0 ROOT

########## Name:	19	3321.11  0.625031
@<TRIPOS>MOLECULE
af2_protein.mol219	
 42 44 1 0 0
SMALL
GASTEIGER


@<TRIPOS>ATOM
      1 P         -11.3647   16.8796    0.5799 P.3     1  UNL1        0.0544
      2 O         -12.7021   16.2533    0.5648 O.co2   1  UNL1       -0.6615
      3 O         -10.6854   16.8753    1.9198 O.co2   1  UNL1       -0.6615
      4 O         -11.3134   18.1949   -0.1000 O.co2   1  UNL1       -0.6615
      5 P          -8.7369   15.5872   -0.5527 P.3     1  UNL1        0.2491
      6 O          -8.1934   15.5781    0.8379 O.co2   1  UNL1       -0.6337
      7 O          -8.0972   16.4780   -1.5585 O.co2   1  UNL1       -0.6337
      8 O         -10.4147   15.8925   -0.3329 O.3     1  UNL1       -0.0930
      9 O          -8.6690   14.0528   -1.0927 O.3     1  UNL1       -0.2057
     10 C          -7.4783   13.2977   -0.9857 C.3     1  UNL1        0.1232
     11 C          -6.4259   14.1004   -1.6926 C.3     1  UNL1        0.1214
     12 O          -5.6537   14.7232   -0.6607 O.3     1  UNL1       -0.3453
     13 C          -5.4436   13.2268   -2.5197 C.3     1  UNL1        0.1593
     14 O          -5.0078   13.9699   -3.6944 O.3     1  UNL1       -0.2421
     15 P          -6.1274   14.4449   -4.8934 P.3     1  UNL1       -0.0004
     16 O          -5.4194   14.0030   -6.1206 O.co2   1  UNL1       -0.6646
     17 O          -7.3337   13.6536   -4.5406 O.co2   1  UNL1       -0.6646
     18 O          -6.3265   15.9160   -4.7201 O.co2   1  UNL1       -0.6646
     19 C          -4.3049   13.0472   -1.5231 C.3     1  UNL1        0.1329
     20 O          -3.0791   12.6888   -2.1990 O.3     1  UNL1       -0.3845
     21 C          -4.2962   14.5008   -1.0103 C.3     1  UNL1        0.1668
     22 N          -3.5489   14.7623    0.2404 N.ar    1  UNL1       -0.2855
     23 C          -2.4404   15.5703    0.2857 C.ar    1  UNL1        0.1004
     24 N          -1.9079   15.6758    1.4671 N.ar    1  UNL1       -0.2306
     25 C          -2.7285   14.8636    2.3133 C.ar    1  UNL1        0.1473
     26 C          -2.6768   14.5738    3.7434 C.ar    1  UNL1        0.1472
     27 N          -1.6777   15.0104    4.5347 N.pl3   1  UNL1       -0.3413
     28 N          -3.6491   13.7715    4.2514 N.ar    1  UNL1       -0.2188
     29 C          -4.5696   13.2874    3.4046 C.ar    1  UNL1        0.1205
     30 N          -4.7312   13.4614    2.0705 N.ar    1  UNL1       -0.2159
     31 C          -3.7512   14.2911    1.5648 C.ar    1  UNL1        0.1674
     32 H          -7.2100   13.1573    0.0614 H       1  UNL1        0.0631
     33 H          -7.6029   12.3309   -1.4734 H       1  UNL1        0.0631
     34 H          -6.8883   14.8558   -2.3281 H       1  UNL1        0.0650
     35 H          -5.8906   12.2712   -2.7935 H       1  UNL1        0.0694
     36 H          -4.5596   12.3379   -0.7357 H       1  UNL1        0.0667
     37 H          -3.9829   15.1862   -1.7978 H       1  UNL1        0.0866
     38 H          -2.0451   16.0743   -0.5839 H       1  UNL1        0.1030
     39 H          -5.3090   12.6491    3.8652 H       1  UNL1        0.1048
     40 H          -1.6348   15.9828    4.8041 H       1  UNL1        0.1438
     41 H          -0.9712   14.3652    4.8583 H       1  UNL1        0.1438
     42 H          -2.3290   13.0126   -1.6950 H       1  UNL1        0.2101
@<TRIPOS>BOND
     1     1     2    1
     2     1     3    1
     3     1     4    1
     4     1     8    1
     5     5     6    1
     6     5     7    1
     7     5     8    1
     8     5     9    1
     9     9    10    1
    10    10    11    1
    11    11    12    1
    12    11    13    1
    13    12    21    1
    14    13    14    1
    15    13    19    1
    16    14    15    1
    17    15    16    1
    18    15    17    1
    19    15    18    1
    20    19    20    1
    21    19    21    1
    22    21    22    1
    23    22    23   ar
    24    22    31   ar
    25    23    24   ar
    26    24    25   ar
    27    25    26   ar
    28    25    31   ar
    29    26    27    1
    30    26    28   ar
    31    28    29   ar
    32    29    30   ar
    33    30    31   ar
    34    32    10    1
    35    33    10    1
    36    11    34    1
    37    13    35    1
    38    19    36    1
    39    21    37    1
    40    38    23    1
    41    39    29    1
    42    40    27    1
    43    41    27    1
    44    42    20    1
@<TRIPOS>SUBSTRUCTURE
     1 UNL1        1 TEMP              0 ****  ****    0 ROOT

