########## Name:	0	2175.85  0.34591
@<TRIPOS>MOLECULE
af2_protein.mol20	
 42 44 1 0 0
SMALL
GASTEIGER


@<TRIPOS>ATOM
      1 P          -3.8660    5.4549   -3.1608 P.3     1  UNL1        0.0544
      2 O          -4.9284    4.7041   -2.4618 O.co2   1  UNL1       -0.6615
      3 O          -4.0308    5.5332   -4.6520 O.co2   1  UNL1       -0.6615
      4 O          -2.4953    5.0816   -2.7405 O.co2   1  UNL1       -0.6615
      5 P          -3.5079    8.5743   -3.1628 P.3     1  UNL1        0.2491
      6 O          -3.0800    9.0912   -4.4965 O.co2   1  UNL1       -0.6337
      7 O          -2.4744    8.3922   -2.1077 O.co2   1  UNL1       -0.6337
      8 O          -4.0487    7.0169   -2.6741 O.3     1  UNL1       -0.0930
      9 O          -4.6287    9.5982   -2.5748 O.3     1  UNL1       -0.2057
     10 C          -4.4003   10.9935   -2.5593 C.3     1  UNL1        0.1232
     11 C          -5.7406   11.6195   -2.3076 C.3     1  UNL1        0.1214
     12 O          -5.8052   11.8449   -0.8955 O.3     1  UNL1       -0.3453
     13 C          -5.9057   13.0054   -2.9889 C.3     1  UNL1        0.1593
     14 O          -7.2980   13.1916   -3.3747 O.3     1  UNL1       -0.2421
     15 P          -8.0226   12.1831   -4.5471 P.3     1  UNL1       -0.0004
     16 O          -8.6664   13.1959   -5.4202 O.co2   1  UNL1       -0.6646
     17 O          -6.8530   11.4878   -5.1424 O.co2   1  UNL1       -0.6646
     18 O          -8.9296   11.2590   -3.8006 O.co2   1  UNL1       -0.6646
     19 C          -5.5167   13.9380   -1.8482 C.3     1  UNL1        0.1329
     20 O          -6.0414   15.2666   -2.0659 O.3     1  UNL1       -0.3845
     21 C          -6.2714   13.1766   -0.7406 C.3     1  UNL1        0.1668
     22 N          -5.9307   13.5229    0.6577 N.ar    1  UNL1       -0.2855
     23 C          -6.8845   13.7848    1.6092 C.ar    1  UNL1        0.1004
     24 N          -6.4005   14.0811    2.7790 N.ar    1  UNL1       -0.2306
     25 C          -4.9798   14.0164    2.6154 C.ar    1  UNL1        0.1473
     26 C          -3.8754   14.2245    3.5475 C.ar    1  UNL1        0.1472
     27 N          -4.0659   14.6449    4.8131 N.pl3   1  UNL1       -0.3413
     28 N          -2.6156   14.0482    3.0689 N.ar    1  UNL1       -0.2188
     29 C          -2.4753   13.7188    1.7764 C.ar    1  UNL1        0.1205
     30 N          -3.3975   13.5071    0.8063 N.ar    1  UNL1       -0.2159
     31 C          -4.6745   13.6703    1.3036 C.ar    1  UNL1        0.1674
     32 H          -3.7426   11.1462   -1.7036 H       1  UNL1        0.0631
     33 H          -3.9513   11.4177   -3.4574 H       1  UNL1        0.0631
     34 H          -6.5384   10.9460   -2.6207 H       1  UNL1        0.0650
     35 H          -5.2340   13.1373   -3.8371 H       1  UNL1        0.0694
     36 H          -4.4451   13.9496   -1.6494 H       1  UNL1        0.0667
     37 H          -7.3343   12.9547   -0.8355 H       1  UNL1        0.0866
     38 H          -7.9442   13.7479    1.4042 H       1  UNL1        0.1030
     39 H          -1.4514   13.6025    1.4533 H       1  UNL1        0.1048
     40 H          -4.4353   14.0098    5.5062 H       1  UNL1        0.1438
     41 H          -3.8396   15.5954    5.0690 H       1  UNL1        0.1438
     42 H          -6.2252   15.6811   -1.2197 H       1  UNL1        0.2101
@<TRIPOS>BOND
     1     1     2    1
     2     1     3    1
     3     1     4    1
     4     1     8    1
     5     5     6    1
     6     5     7    1
     7     5     8    1
     8     5     9    1
     9     9    10    1
    10    10    11    1
    11    11    12    1
    12    11    13    1
    13    12    21    1
    14    13    14    1
    15    13    19    1
    16    14    15    1
    17    15    16    1
    18    15    17    1
    19    15    18    1
    20    19    20    1
    21    19    21    1
    22    21    22    1
    23    22    23   ar
    24    22    31   ar
    25    23    24   ar
    26    24    25   ar
    27    25    26   ar
    28    25    31   ar
    29    26    27    1
    30    26    28   ar
    31    28    29   ar
    32    29    30   ar
    33    30    31   ar
    34    32    10    1
    35    33    10    1
    36    11    34    1
    37    13    35    1
    38    19    36    1
    39    21    37    1
    40    38    23    1
    41    39    29    1
    42    40    27    1
    43    41    27    1
    44    42    20    1
@<TRIPOS>SUBSTRUCTURE
     1 UNL1        1 TEMP              0 ****  ****    0 ROOT

########## Name:	1	2164.87  0.351208
@<TRIPOS>MOLECULE
af2_protein.mol21	
 42 44 1 0 0
SMALL
GASTEIGER


@<TRIPOS>ATOM
      1 P          -8.8969    4.9872   -2.5798 P.3     1  UNL1        0.0544
      2 O          -9.9740    5.2980   -3.5412 O.co2   1  UNL1       -0.6615
      3 O          -7.7457    4.2131   -3.1565 O.co2   1  UNL1       -0.6615
      4 O          -9.3848    4.4413   -1.2919 O.co2   1  UNL1       -0.6615
      5 P          -6.7574    7.0274   -1.5218 P.3     1  UNL1        0.2491
      6 O          -5.9390    6.1613   -2.4214 O.co2   1  UNL1       -0.6337
      7 O          -6.4008    7.0879   -0.0783 O.co2   1  UNL1       -0.6337
      8 O          -8.2258    6.4411   -2.1977 O.3     1  UNL1       -0.0930
      9 O          -6.8381    8.6424   -1.7101 O.3     1  UNL1       -0.2057
     10 C          -5.6760    9.4003   -1.9834 C.3     1  UNL1        0.1232
     11 C          -6.1612   10.7858   -2.2942 C.3     1  UNL1        0.1214
     12 O          -6.0352   11.5245   -1.0745 O.3     1  UNL1       -0.3453
     13 C          -5.2884   11.5165   -3.3508 C.3     1  UNL1        0.1593
     14 O          -6.1292   12.4057   -4.1409 O.3     1  UNL1       -0.2421
     15 P          -7.3866   11.7834   -5.1149 P.3     1  UNL1       -0.0004
     16 O          -7.1250   12.4969   -6.3897 O.co2   1  UNL1       -0.6646
     17 O          -7.0908   10.3281   -5.1334 O.co2   1  UNL1       -0.6646
     18 O          -8.6627   12.1078   -4.4077 O.co2   1  UNL1       -0.6646
     19 C          -4.3412   12.3021   -2.4521 C.3     1  UNL1        0.1329
     20 O          -3.7572   13.4149   -3.1651 O.3     1  UNL1       -0.3845
     21 C          -5.4056   12.7461   -1.4293 C.3     1  UNL1        0.1668
     22 N          -4.9102   13.2887   -0.1442 N.ar    1  UNL1       -0.2855
     23 C          -3.5960   13.6287    0.0587 C.ar    1  UNL1        0.1004
     24 N          -3.3419   14.0787    1.2516 N.ar    1  UNL1       -0.2306
     25 C          -4.6006   14.0447    1.9325 C.ar    1  UNL1        0.1473
     26 C          -4.9945   14.4307    3.2845 C.ar    1  UNL1        0.1472
     27 N          -4.1029   14.8319    4.2113 N.pl3   1  UNL1       -0.3413
     28 N          -6.3074   14.3011    3.6111 N.ar    1  UNL1       -0.2188
     29 C          -7.1401   13.8100    2.6815 C.ar    1  UNL1        0.1205
     30 N          -6.9142   13.4058    1.4080 N.ar    1  UNL1       -0.2159
     31 C          -5.5828   13.5569    1.0774 C.ar    1  UNL1        0.1674
     32 H          -5.1018    9.3974   -1.0569 H       1  UNL1        0.0631
     33 H          -5.0651    9.0243   -2.8040 H       1  UNL1        0.0631
     34 H          -7.2025   10.7597   -2.6155 H       1  UNL1        0.0650
     35 H          -4.7484   10.8105   -3.9817 H       1  UNL1        0.0694
     36 H          -3.5825   11.6629   -2.0006 H       1  UNL1        0.0667
     37 H          -4.6563   12.8628   -2.2123 H       1  UNL1        0.0866
     38 H          -2.8393   13.5310   -0.7058 H       1  UNL1        0.1030
     39 H          -8.1672   13.7215    3.0033 H       1  UNL1        0.1048
     40 H          -3.6875   15.7504    4.1483 H       1  UNL1        0.1438
     41 H          -3.8497   14.2141    4.9691 H       1  UNL1        0.1438
     42 H          -3.5597   14.1229   -2.5476 H       1  UNL1        0.2101
@<TRIPOS>BOND
     1     1     2    1
     2     1     3    1
     3     1     4    1
     4     1     8    1
     5     5     6    1
     6     5     7    1
     7     5     8    1
     8     5     9    1
     9     9    10    1
    10    10    11    1
    11    11    12    1
    12    11    13    1
    13    12    21    1
    14    13    14    1
    15    13    19    1
    16    14    15    1
    17    15    16    1
    18    15    17    1
    19    15    18    1
    20    19    20    1
    21    19    21    1
    22    21    22    1
    23    22    23   ar
    24    22    31   ar
    25    23    24   ar
    26    24    25   ar
    27    25    26   ar
    28    25    31   ar
    29    26    27    1
    30    26    28   ar
    31    28    29   ar
    32    29    30   ar
    33    30    31   ar
    34    32    10    1
    35    33    10    1
    36    11    34    1
    37    13    35    1
    38    19    36    1
    39    21    37    1
    40    38    23    1
    41    39    29    1
    42    40    27    1
    43    41    27    1
    44    42    20    1
@<TRIPOS>SUBSTRUCTURE
     1 UNL1        1 TEMP              0 ****  ****    0 ROOT

########## Name:	2	2191.7  0.329799
@<TRIPOS>MOLECULE
af2_protein.mol22	
 42 44 1 0 0
SMALL
GASTEIGER


@<TRIPOS>ATOM
      1 P          -8.7635    5.5435   -3.1680 P.3     1  UNL1        0.0544
      2 O         -10.0520    5.9009   -3.7950 O.co2   1  UNL1       -0.6615
      3 O          -7.6927    5.1199   -4.1328 O.co2   1  UNL1       -0.6615
      4 O          -8.8968    4.6369   -2.0039 O.co2   1  UNL1       -0.6615
      5 P          -6.6692    7.5832   -2.0225 P.3     1  UNL1        0.2491
      6 O          -5.9790    7.0736   -3.2445 O.co2   1  UNL1       -0.6337
      7 O          -6.0622    7.2982   -0.6941 O.co2   1  UNL1       -0.6337
      8 O          -8.1807    6.9514   -2.5450 O.3     1  UNL1       -0.0930
      9 O          -6.8136    9.1939   -2.2103 O.3     1  UNL1       -0.2057
     10 C          -5.6983    9.9859   -2.5681 C.3     1  UNL1        0.1232
     11 C          -6.2264   11.3822   -2.7198 C.3     1  UNL1        0.1214
     12 O          -6.1696   11.9634   -1.4129 O.3     1  UNL1       -0.3453
     13 C          -5.3481   12.2711   -3.6422 C.3     1  UNL1        0.1593
     14 O          -6.1963   13.2243   -4.3451 O.3     1  UNL1       -0.2421
     15 P          -7.3955   12.6883   -5.4365 P.3     1  UNL1       -0.0004
     16 O          -7.1198   13.5670   -6.6004 O.co2   1  UNL1       -0.6646
     17 O          -7.0429   11.2583   -5.6271 O.co2   1  UNL1       -0.6646
     18 O          -8.7060   12.8760   -4.7429 O.co2   1  UNL1       -0.6646
     19 C          -4.4624   12.9680   -2.6164 C.3     1  UNL1        0.1329
     20 O          -3.8989   14.1819   -3.1609 O.3     1  UNL1       -0.3845
     21 C          -5.5766   13.2411   -1.5867 C.3     1  UNL1        0.1668
     22 N          -5.1455   13.6324   -0.2258 N.ar    1  UNL1       -0.2855
     23 C          -3.8565   14.0033    0.0648 C.ar    1  UNL1        0.1004
     24 N          -3.6589   14.3037    1.3142 N.ar    1  UNL1       -0.2306
     25 C          -4.9330   14.1220    1.9411 C.ar    1  UNL1        0.1473
     26 C          -5.3837   14.3080    3.3174 C.ar    1  UNL1        0.1472
     27 N          -4.5398   14.6248    4.3187 N.pl3   1  UNL1       -0.3413
     28 N          -6.6970   14.0758    3.5790 N.ar    1  UNL1       -0.2188
     29 C          -7.4774   13.6733    2.5653 C.ar    1  UNL1        0.1205
     30 N          -7.1957   13.4511    1.2585 N.ar    1  UNL1       -0.2159
     31 C          -5.8649   13.7060    0.9965 C.ar    1  UNL1        0.1674
     32 H          -5.1554    9.8847   -1.6283 H       1  UNL1        0.0631
     33 H          -5.0464    9.7387   -3.4059 H       1  UNL1        0.0631
     34 H          -7.2547   11.3615   -3.0810 H       1  UNL1        0.0650
     35 H          -4.7605   11.6702   -4.3362 H       1  UNL1        0.0694
     36 H          -3.7076   12.1944   -2.4759 H       1  UNL1        0.0667
     37 H          -4.8125   13.4945   -2.3216 H       1  UNL1        0.0866
     38 H          -3.0746   14.0423   -0.6794 H       1  UNL1        0.1030
     39 H          -8.5074   13.4956    2.8373 H       1  UNL1        0.1048
     40 H          -4.1697   15.5618    4.3901 H       1  UNL1        0.1438
     41 H          -4.2771   13.9251    4.9980 H       1  UNL1        0.1438
     42 H          -3.5239   14.7077   -2.4506 H       1  UNL1        0.2101
@<TRIPOS>BOND
     1     1     2    1
     2     1     3    1
     3     1     4    1
     4     1     8    1
     5     5     6    1
     6     5     7    1
     7     5     8    1
     8     5     9    1
     9     9    10    1
    10    10    11    1
    11    11    12    1
    12    11    13    1
    13    12    21    1
    14    13    14    1
    15    13    19    1
    16    14    15    1
    17    15    16    1
    18    15    17    1
    19    15    18    1
    20    19    20    1
    21    19    21    1
    22    21    22    1
    23    22    23   ar
    24    22    31   ar
    25    23    24   ar
    26    24    25   ar
    27    25    26   ar
    28    25    31   ar
    29    26    27    1
    30    26    28   ar
    31    28    29   ar
    32    29    30   ar
    33    30    31   ar
    34    32    10    1
    35    33    10    1
    36    11    34    1
    37    13    35    1
    38    19    36    1
    39    21    37    1
    40    38    23    1
    41    39    29    1
    42    40    27    1
    43    41    27    1
    44    42    20    1
@<TRIPOS>SUBSTRUCTURE
     1 UNL1        1 TEMP              0 ****  ****    0 ROOT

########## Name:	3	2237.76  0.310955
@<TRIPOS>MOLECULE
af2_protein.mol23	
 42 44 1 0 0
SMALL
GASTEIGER


@<TRIPOS>ATOM
      1 P          -3.2238    7.3350   -3.0907 P.3     1  UNL1        0.0544
      2 O          -3.7475    6.4438   -2.0359 O.co2   1  UNL1       -0.6615
      3 O          -3.8753    7.1673   -4.4340 O.co2   1  UNL1       -0.6615
      4 O          -1.7444    7.3769   -3.1570 O.co2   1  UNL1       -0.6615
      5 P          -4.0341   10.3534   -3.3928 P.3     1  UNL1        0.2491
      6 O          -4.2633   10.9828   -4.7271 O.co2   1  UNL1       -0.6337
      7 O          -2.6527   10.3467   -2.8395 O.co2   1  UNL1       -0.6337
      8 O          -3.6715    8.8525   -2.6361 O.3     1  UNL1       -0.0930
      9 O          -5.0166   11.1137   -2.3406 O.3     1  UNL1       -0.2057
     10 C          -5.0516   12.5255   -2.2702 C.3     1  UNL1        0.1232
     11 C          -6.1334   12.8540   -1.2835 C.3     1  UNL1        0.1214
     12 O          -5.5096   12.8148    0.0043 O.3     1  UNL1       -0.3453
     13 C          -6.7059   14.2871   -1.4588 C.3     1  UNL1        0.1593
     14 O          -8.1167   14.2916   -1.0960 O.3     1  UNL1       -0.2421
     15 P          -9.2492   13.3663   -1.9781 P.3     1  UNL1       -0.0004
     16 O         -10.5221   13.9555   -1.4934 O.co2   1  UNL1       -0.6646
     17 O          -8.9009   13.6860   -3.3860 O.co2   1  UNL1       -0.6646
     18 O          -8.9874   11.9378   -1.6250 O.co2   1  UNL1       -0.6646
     19 C          -5.8701   15.0598   -0.4455 C.3     1  UNL1        0.1329
     20 O          -6.5228   16.2935   -0.0718 O.3     1  UNL1       -0.3845
     21 C          -5.9282   13.9968    0.6693 C.3     1  UNL1        0.1668
     22 N          -4.9678   14.1480    1.7855 N.ar    1  UNL1       -0.2855
     23 C          -5.3652   14.3884    3.0770 C.ar    1  UNL1        0.1004
     24 N          -4.3839   14.5027    3.9222 N.ar    1  UNL1       -0.2306
     25 C          -3.2005   14.3237    3.1368 C.ar    1  UNL1        0.1473
     26 C          -1.7830   14.3194    3.4870 C.ar    1  UNL1        0.1472
     27 N          -1.3430   14.6090    4.7270 N.pl3   1  UNL1       -0.3413
     28 N          -0.8954   14.0810    2.4858 N.ar    1  UNL1       -0.2188
     29 C          -1.3795   13.8893    1.2499 C.ar    1  UNL1        0.1205
     30 N          -2.6520   13.8772    0.7840 N.ar    1  UNL1       -0.2159
     31 C          -3.5485   14.1021    1.8088 C.ar    1  UNL1        0.1674
     32 H          -4.0700   12.6391   -1.8102 H       1  UNL1        0.0631
     33 H          -5.1328   13.1715   -3.1443 H       1  UNL1        0.0631
     34 H          -6.9342   12.1166   -1.3393 H       1  UNL1        0.0650
     35 H          -6.5517   14.6589   -2.4717 H       1  UNL1        0.0694
     36 H          -4.8524   15.2266   -0.7982 H       1  UNL1        0.0667
     37 H          -6.9450   13.8882    1.0468 H       1  UNL1        0.0866
     38 H          -6.4023   14.4751    3.3659 H       1  UNL1        0.1030
     39 H          -0.6257   13.7147    0.4965 H       1  UNL1        0.1048
     40 H          -1.4545   13.9367    5.4724 H       1  UNL1        0.1438
     41 H          -0.9017   15.4986    4.9113 H       1  UNL1        0.1438
     42 H          -6.2740   16.5286    0.8251 H       1  UNL1        0.2101
@<TRIPOS>BOND
     1     1     2    1
     2     1     3    1
     3     1     4    1
     4     1     8    1
     5     5     6    1
     6     5     7    1
     7     5     8    1
     8     5     9    1
     9     9    10    1
    10    10    11    1
    11    11    12    1
    12    11    13    1
    13    12    21    1
    14    13    14    1
    15    13    19    1
    16    14    15    1
    17    15    16    1
    18    15    17    1
    19    15    18    1
    20    19    20    1
    21    19    21    1
    22    21    22    1
    23    22    23   ar
    24    22    31   ar
    25    23    24   ar
    26    24    25   ar
    27    25    26   ar
    28    25    31   ar
    29    26    27    1
    30    26    28   ar
    31    28    29   ar
    32    29    30   ar
    33    30    31   ar
    34    32    10    1
    35    33    10    1
    36    11    34    1
    37    13    35    1
    38    19    36    1
    39    21    37    1
    40    38    23    1
    41    39    29    1
    42    40    27    1
    43    41    27    1
    44    42    20    1
@<TRIPOS>SUBSTRUCTURE
     1 UNL1        1 TEMP              0 ****  ****    0 ROOT

########## Name:	4	2184.16  0.344707
@<TRIPOS>MOLECULE
af2_protein.mol24	
 42 44 1 0 0
SMALL
GASTEIGER


@<TRIPOS>ATOM
      1 P          -9.2878    5.4924   -1.2341 P.3     1  UNL1        0.0544
      2 O         -10.5933    5.7365   -1.8799 O.co2   1  UNL1       -0.6615
      3 O          -8.2951    4.7537   -2.0861 O.co2   1  UNL1       -0.6615
      4 O          -9.3934    4.9560    0.1428 O.co2   1  UNL1       -0.6615
      5 P          -7.0393    7.6434   -0.8140 P.3     1  UNL1        0.2491
      6 O          -6.2722    6.8272   -1.8012 O.co2   1  UNL1       -0.6337
      7 O          -6.5363    7.7226    0.5842 O.co2   1  UNL1       -0.6337
      8 O          -8.6072    6.9810   -1.0588 O.3     1  UNL1       -0.0930
      9 O          -7.0901    9.0944   -1.5503 O.3     1  UNL1       -0.2057
     10 C          -5.9093    9.7069   -2.0297 C.3     1  UNL1        0.1232
     11 C          -6.3193   11.0789   -2.4784 C.3     1  UNL1        0.1214
     12 O          -6.2748   11.9003   -1.3069 O.3     1  UNL1       -0.3453
     13 C          -5.3344   11.7071   -3.5018 C.3     1  UNL1        0.1593
     14 O          -6.0736   12.5591   -4.4236 O.3     1  UNL1       -0.2421
     15 P          -7.1597   11.8857   -5.5565 P.3     1  UNL1       -0.0004
     16 O          -6.6399   12.4718   -6.8170 O.co2   1  UNL1       -0.6646
     17 O          -6.9304   10.4272   -5.3964 O.co2   1  UNL1       -0.6646
     18 O          -8.5273   12.3092   -5.1273 O.co2   1  UNL1       -0.6646
     19 C          -4.4429   12.5300   -2.5796 C.3     1  UNL1        0.1329
     20 O          -3.7627   13.5720   -3.3140 O.3     1  UNL1       -0.3845
     21 C          -5.5766   13.0755   -1.6888 C.3     1  UNL1        0.1668
     22 N          -5.1765   13.6963   -0.4059 N.ar    1  UNL1       -0.2855
     23 C          -4.0143   14.4116   -0.2599 C.ar    1  UNL1        0.1004
     24 N          -3.8224   14.8742    0.9398 N.ar    1  UNL1       -0.2306
     25 C          -4.9607   14.4352    1.6887 C.ar    1  UNL1        0.1473
     26 C          -5.3546   14.6345    3.0805 C.ar    1  UNL1        0.1472
     27 N          -4.5608   15.2539    3.9757 N.pl3   1  UNL1       -0.3413
     28 N          -6.5410   14.1009    3.4740 N.ar    1  UNL1       -0.2188
     29 C          -7.2519   13.4141    2.5677 C.ar    1  UNL1        0.1205
     30 N          -7.0067   13.1436    1.2627 N.ar    1  UNL1       -0.2159
     31 C          -5.8095   13.7035    0.8654 C.ar    1  UNL1        0.1674
     32 H          -5.4179    9.7557   -1.0580 H       1  UNL1        0.0631
     33 H          -5.2424    9.2560   -2.7646 H       1  UNL1        0.0631
     34 H          -7.3292   11.0577   -2.8882 H       1  UNL1        0.0650
     35 H          -4.6907   11.0061   -4.0331 H       1  UNL1        0.0694
     36 H          -3.7930   11.6772   -2.3838 H       1  UNL1        0.0667
     37 H          -4.9550   13.4422   -2.5057 H       1  UNL1        0.0866
     38 H          -3.3200   14.5758   -1.0708 H       1  UNL1        0.1030
     39 H          -8.1792   13.0064    2.9424 H       1  UNL1        0.1048
     40 H          -4.4462   16.2567    3.9405 H       1  UNL1        0.1438
     41 H          -4.0801   14.7152    4.6820 H       1  UNL1        0.1438
     42 H          -3.2638   14.1203   -2.7041 H       1  UNL1        0.2101
@<TRIPOS>BOND
     1     1     2    1
     2     1     3    1
     3     1     4    1
     4     1     8    1
     5     5     6    1
     6     5     7    1
     7     5     8    1
     8     5     9    1
     9     9    10    1
    10    10    11    1
    11    11    12    1
    12    11    13    1
    13    12    21    1
    14    13    14    1
    15    13    19    1
    16    14    15    1
    17    15    16    1
    18    15    17    1
    19    15    18    1
    20    19    20    1
    21    19    21    1
    22    21    22    1
    23    22    23   ar
    24    22    31   ar
    25    23    24   ar
    26    24    25   ar
    27    25    26   ar
    28    25    31   ar
    29    26    27    1
    30    26    28   ar
    31    28    29   ar
    32    29    30   ar
    33    30    31   ar
    34    32    10    1
    35    33    10    1
    36    11    34    1
    37    13    35    1
    38    19    36    1
    39    21    37    1
    40    38    23    1
    41    39    29    1
    42    40    27    1
    43    41    27    1
    44    42    20    1
@<TRIPOS>SUBSTRUCTURE
     1 UNL1        1 TEMP              0 ****  ****    0 ROOT

########## Name:	5	2152.81  0.348325
@<TRIPOS>MOLECULE
af2_protein.mol25	
 42 44 1 0 0
SMALL
GASTEIGER


@<TRIPOS>ATOM
      1 P          -3.8046    4.4589   -3.3044 P.3     1  UNL1        0.0544
      2 O          -4.6782    3.8482   -4.3266 O.co2   1  UNL1       -0.6615
      3 O          -2.3997    4.7313   -3.7619 O.co2   1  UNL1       -0.6615
      4 O          -3.8727    3.7907   -1.9839 O.co2   1  UNL1       -0.6615
      5 P          -3.9888    7.3901   -2.1940 P.3     1  UNL1        0.2491
      6 O          -2.5813    7.8380   -1.9766 O.co2   1  UNL1       -0.6337
      7 O          -4.8049    7.0144   -1.0077 O.co2   1  UNL1       -0.6337
      8 O          -4.4220    5.9637   -3.0511 O.3     1  UNL1       -0.0930
      9 O          -4.7402    8.5915   -2.9954 O.3     1  UNL1       -0.2057
     10 C          -4.6646    9.9274   -2.5382 C.3     1  UNL1        0.1232
     11 C          -6.0846   10.3612   -2.3216 C.3     1  UNL1        0.1214
     12 O          -6.1883   10.6701   -0.9277 O.3     1  UNL1       -0.3453
     13 C          -6.4525   11.6571   -3.0946 C.3     1  UNL1        0.1593
     14 O          -7.8553   11.6059   -3.4839 O.3     1  UNL1       -0.2421
     15 P          -8.3020   11.4403   -5.1239 P.3     1  UNL1       -0.0004
     16 O          -9.5713   12.2092   -5.1417 O.co2   1  UNL1       -0.6646
     17 O          -7.1657   12.0805   -5.8344 O.co2   1  UNL1       -0.6646
     18 O          -8.3971    9.9718   -5.3850 O.co2   1  UNL1       -0.6646
     19 C          -6.2126   12.7130   -2.0223 C.3     1  UNL1        0.1329
     20 O          -6.9295   13.9300   -2.3268 O.3     1  UNL1       -0.3845
     21 C          -6.8494   11.9243   -0.8610 C.3     1  UNL1        0.1668
     22 N          -6.5704   12.4122    0.5084 N.ar    1  UNL1       -0.2855
     23 C          -7.3825   12.1246    1.5769 C.ar    1  UNL1        0.1004
     24 N          -6.9869   12.6459    2.7003 N.ar    1  UNL1       -0.2306
     25 C          -5.7898   13.3591    2.3724 C.ar    1  UNL1        0.1473
     26 C          -4.8607   14.1402    3.1839 C.ar    1  UNL1        0.1472
     27 N          -5.0814   14.4016    4.4870 N.pl3   1  UNL1       -0.3413
     28 N          -3.7785   14.6696    2.5550 N.ar    1  UNL1       -0.2188
     29 C          -3.6521   14.4573    1.2369 C.ar    1  UNL1        0.1205
     30 N          -4.4324   13.7715    0.3666 N.ar    1  UNL1       -0.2159
     31 C          -5.5195   13.2219    1.0152 C.ar    1  UNL1        0.1674
     32 H          -4.0408   10.2349   -1.6988 H       1  UNL1        0.0631
     33 H          -4.2804   10.3518   -3.4657 H       1  UNL1        0.0631
     34 H          -6.7712    9.5561   -2.5834 H       1  UNL1        0.0650
     35 H          -5.9419   12.5067   -3.5480 H       1  UNL1        0.0694
     36 H          -5.1344   12.8700   -1.9953 H       1  UNL1        0.0667
     37 H          -7.6280   11.1616   -0.8481 H       1  UNL1        0.0866
     38 H          -8.2722   11.5181    1.4918 H       1  UNL1        0.1030
     39 H          -2.7785   14.9109    0.7926 H       1  UNL1        0.1048
     40 H          -4.9577   13.6738    5.1763 H       1  UNL1        0.1438
     41 H          -5.3707   15.3255    4.7747 H       1  UNL1        0.1438
     42 H          -7.0465   14.4424   -1.5234 H       1  UNL1        0.2101
@<TRIPOS>BOND
     1     1     2    1
     2     1     3    1
     3     1     4    1
     4     1     8    1
     5     5     6    1
     6     5     7    1
     7     5     8    1
     8     5     9    1
     9     9    10    1
    10    10    11    1
    11    11    12    1
    12    11    13    1
    13    12    21    1
    14    13    14    1
    15    13    19    1
    16    14    15    1
    17    15    16    1
    18    15    17    1
    19    15    18    1
    20    19    20    1
    21    19    21    1
    22    21    22    1
    23    22    23   ar
    24    22    31   ar
    25    23    24   ar
    26    24    25   ar
    27    25    26   ar
    28    25    31   ar
    29    26    27    1
    30    26    28   ar
    31    28    29   ar
    32    29    30   ar
    33    30    31   ar
    34    32    10    1
    35    33    10    1
    36    11    34    1
    37    13    35    1
    38    19    36    1
    39    21    37    1
    40    38    23    1
    41    39    29    1
    42    40    27    1
    43    41    27    1
    44    42    20    1
@<TRIPOS>SUBSTRUCTURE
     1 UNL1        1 TEMP              0 ****  ****    0 ROOT

########## Name:	6	2187.02  0.343516
@<TRIPOS>MOLECULE
af2_protein.mol26	
 42 44 1 0 0
SMALL
GASTEIGER


@<TRIPOS>ATOM
      1 P          -5.0018    5.3423   -2.8265 P.3     1  UNL1        0.0544
      2 O          -3.9503    5.0728   -3.8278 O.co2   1  UNL1       -0.6615
      3 O          -4.6856    4.8593   -1.4395 O.co2   1  UNL1       -0.6615
      4 O          -6.3647    4.9777   -3.2785 O.co2   1  UNL1       -0.6615
      5 P          -4.0319    8.2129   -2.0031 P.3     1  UNL1        0.2491
      6 O          -2.5443    8.2171   -1.8761 O.co2   1  UNL1       -0.6337
      7 O          -4.8497    8.1544   -0.7613 O.co2   1  UNL1       -0.6337
      8 O          -5.0330    6.9800   -2.6625 O.3     1  UNL1       -0.0930
      9 O          -4.4354    9.5536   -2.8339 O.3     1  UNL1       -0.2057
     10 C          -3.9315   10.8200   -2.4575 C.3     1  UNL1        0.1232
     11 C          -5.1197   11.7360   -2.4312 C.3     1  UNL1        0.1214
     12 O          -5.4202   11.9431   -1.0471 O.3     1  UNL1       -0.3453
     13 C          -4.8265   13.1350   -3.0386 C.3     1  UNL1        0.1593
     14 O          -6.0322   13.6478   -3.6754 O.3     1  UNL1       -0.2421
     15 P          -6.6949   12.8722   -5.0450 P.3     1  UNL1       -0.0004
     16 O          -6.7806   14.0121   -5.9914 O.co2   1  UNL1       -0.6646
     17 O          -5.6623   11.8561   -5.3720 O.co2   1  UNL1       -0.6646
     18 O          -7.9857   12.2656   -4.5982 O.co2   1  UNL1       -0.6646
     19 C          -4.4807   13.9293   -1.7849 C.3     1  UNL1        0.1329
     20 O          -4.6381   15.3475   -2.0126 O.3     1  UNL1       -0.3845
     21 C          -5.5975   13.3435   -0.8985 C.3     1  UNL1        0.1668
     22 N          -5.4819   13.5740    0.5591 N.ar    1  UNL1       -0.2855
     23 C          -6.5699   13.5852    1.3957 C.ar    1  UNL1        0.1004
     24 N          -6.2792   13.8132    2.6422 N.ar    1  UNL1       -0.2306
     25 C          -4.8568   13.9738    2.6638 C.ar    1  UNL1        0.1473
     26 C          -3.9160   14.2321    3.7501 C.ar    1  UNL1        0.1472
     27 N          -4.3174   14.4736    5.0132 N.pl3   1  UNL1       -0.3413
     28 N          -2.5969   14.2955    3.4289 N.ar    1  UNL1       -0.2188
     29 C          -2.2559   14.1392    2.1413 C.ar    1  UNL1        0.1205
     30 N          -3.0131   13.9080    1.0415 N.ar    1  UNL1       -0.2159
     31 C          -4.3492   13.8271    1.3775 C.ar    1  UNL1        0.1674
     32 H          -3.4460   10.7988   -1.4818 H       1  UNL1        0.0631
     33 H          -3.2245   11.1450   -3.2208 H       1  UNL1        0.0631
     34 H          -5.9666   11.2730   -2.9377 H       1  UNL1        0.0650
     35 H          -3.9792   13.1384   -3.7242 H       1  UNL1        0.0694
     36 H          -3.4503   13.6045   -1.9287 H       1  UNL1        0.0667
     37 H          -6.5936   12.9825   -1.1546 H       1  UNL1        0.0866
     38 H          -7.5791   13.4190    1.0489 H       1  UNL1        0.1030
     39 H          -1.1958   14.2097    1.9478 H       1  UNL1        0.1048
     40 H          -4.6605   13.7171    5.5876 H       1  UNL1        0.1438
     41 H          -4.2755   15.4115    5.3857 H       1  UNL1        0.1438
     42 H          -4.3987   15.8282   -1.2168 H       1  UNL1        0.2101
@<TRIPOS>BOND
     1     1     2    1
     2     1     3    1
     3     1     4    1
     4     1     8    1
     5     5     6    1
     6     5     7    1
     7     5     8    1
     8     5     9    1
     9     9    10    1
    10    10    11    1
    11    11    12    1
    12    11    13    1
    13    12    21    1
    14    13    14    1
    15    13    19    1
    16    14    15    1
    17    15    16    1
    18    15    17    1
    19    15    18    1
    20    19    20    1
    21    19    21    1
    22    21    22    1
    23    22    23   ar
    24    22    31   ar
    25    23    24   ar
    26    24    25   ar
    27    25    26   ar
    28    25    31   ar
    29    26    27    1
    30    26    28   ar
    31    28    29   ar
    32    29    30   ar
    33    30    31   ar
    34    32    10    1
    35    33    10    1
    36    11    34    1
    37    13    35    1
    38    19    36    1
    39    21    37    1
    40    38    23    1
    41    39    29    1
    42    40    27    1
    43    41    27    1
    44    42    20    1
@<TRIPOS>SUBSTRUCTURE
     1 UNL1        1 TEMP              0 ****  ****    0 ROOT

########## Name:	7	2127.64  0.333835
@<TRIPOS>MOLECULE
af2_protein.mol27	
 42 44 1 0 0
SMALL
GASTEIGER


@<TRIPOS>ATOM
      1 P          -2.0888    6.5509   -5.0996 P.3     1  UNL1        0.0544
      2 O          -3.1313    5.7086   -5.7198 O.co2   1  UNL1       -0.6615
      3 O          -1.1094    7.1511   -6.0678 O.co2   1  UNL1       -0.6615
      4 O          -1.4424    5.9297   -3.9201 O.co2   1  UNL1       -0.6615
      5 P          -2.6096    9.1096   -3.3559 P.3     1  UNL1        0.2491
      6 O          -1.2259    9.6417   -3.1784 O.co2   1  UNL1       -0.6337
      7 O          -3.2532    8.4110   -2.2104 O.co2   1  UNL1       -0.6337
      8 O          -2.8887    7.8608   -4.5046 O.3     1  UNL1       -0.0930
      9 O          -3.7200   10.2459   -3.7109 O.3     1  UNL1       -0.2057
     10 C          -3.7786   11.4563   -2.9823 C.3     1  UNL1        0.1232
     11 C          -5.2387   11.7303   -2.7709 C.3     1  UNL1        0.1214
     12 O          -5.4019   11.8995   -1.3589 O.3     1  UNL1       -0.3453
     13 C          -5.7157   13.0499   -3.4368 C.3     1  UNL1        0.1593
     14 O          -7.0981   12.8999   -3.8710 O.3     1  UNL1       -0.2421
     15 P          -7.5208   11.7503   -5.0611 P.3     1  UNL1       -0.0004
     16 O          -8.4001   12.5683   -5.9329 O.co2   1  UNL1       -0.6646
     17 O          -6.2039   11.3942   -5.6482 O.co2   1  UNL1       -0.6646
     18 O          -8.1596   10.6115   -4.3340 O.co2   1  UNL1       -0.6646
     19 C          -5.6037   14.0218   -2.2684 C.3     1  UNL1        0.1329
     20 O          -6.4301   15.1870   -2.4853 O.3     1  UNL1       -0.3845
     21 C          -6.1844   13.0732   -1.2012 C.3     1  UNL1        0.1668
     22 N          -5.9839   13.4588    0.2139 N.ar    1  UNL1       -0.2855
     23 C          -7.0165   13.5312    1.1151 C.ar    1  UNL1        0.1004
     24 N          -6.6547   13.8965    2.3092 N.ar    1  UNL1       -0.2306
     25 C          -5.2397   14.0936    2.2197 C.ar    1  UNL1        0.1473
     26 C          -4.2404   14.4881    3.2085 C.ar    1  UNL1        0.1472
     27 N          -4.5684   14.8514    4.4637 N.pl3   1  UNL1       -0.3413
     28 N          -2.9470   14.5499    2.7958 N.ar    1  UNL1       -0.2188
     29 C          -2.6836   14.2672    1.5115 C.ar    1  UNL1        0.1205
     30 N          -3.5013   13.9028    0.4941 N.ar    1  UNL1       -0.2159
     31 C          -4.8102   13.8248    0.9247 C.ar    1  UNL1        0.1674
     32 H          -3.2061   11.7445   -2.1006 H       1  UNL1        0.0631
     33 H          -3.4183   11.9984   -3.8566 H       1  UNL1        0.0631
     34 H          -5.8371   10.8901   -3.1235 H       1  UNL1        0.0650
     35 H          -5.0658   13.3396   -4.2624 H       1  UNL1        0.0694
     36 H          -4.6598   14.2747   -1.7854 H       1  UNL1        0.0667
     37 H          -7.1828   12.6627   -1.3519 H       1  UNL1        0.0866
     38 H          -8.0400   13.3045    0.8551 H       1  UNL1        0.1030
     39 H          -1.6406   14.3432    1.2418 H       1  UNL1        0.1048
     40 H          -4.8504   14.1514    5.1349 H       1  UNL1        0.1438
     41 H          -4.5326   15.8240    4.7335 H       1  UNL1        0.1438
     42 H          -6.9191   15.3866   -1.6836 H       1  UNL1        0.2101
@<TRIPOS>BOND
     1     1     2    1
     2     1     3    1
     3     1     4    1
     4     1     8    1
     5     5     6    1
     6     5     7    1
     7     5     8    1
     8     5     9    1
     9     9    10    1
    10    10    11    1
    11    11    12    1
    12    11    13    1
    13    12    21    1
    14    13    14    1
    15    13    19    1
    16    14    15    1
    17    15    16    1
    18    15    17    1
    19    15    18    1
    20    19    20    1
    21    19    21    1
    22    21    22    1
    23    22    23   ar
    24    22    31   ar
    25    23    24   ar
    26    24    25   ar
    27    25    26   ar
    28    25    31   ar
    29    26    27    1
    30    26    28   ar
    31    28    29   ar
    32    29    30   ar
    33    30    31   ar
    34    32    10    1
    35    33    10    1
    36    11    34    1
    37    13    35    1
    38    19    36    1
    39    21    37    1
    40    38    23    1
    41    39    29    1
    42    40    27    1
    43    41    27    1
    44    42    20    1
@<TRIPOS>SUBSTRUCTURE
     1 UNL1        1 TEMP              0 ****  ****    0 ROOT

########## Name:	8	2196.56  0.34493
@<TRIPOS>MOLECULE
af2_protein.mol28	
 42 44 1 0 0
SMALL
GASTEIGER


@<TRIPOS>ATOM
      1 P          -3.4772    5.5326   -3.7760 P.3     1  UNL1        0.0544
      2 O          -3.4744    5.2987   -5.2342 O.co2   1  UNL1       -0.6615
      3 O          -2.1182    5.7464   -3.1725 O.co2   1  UNL1       -0.6615
      4 O          -4.3112    4.5707   -3.0184 O.co2   1  UNL1       -0.6615
      5 P          -4.4928    8.1110   -2.2998 P.3     1  UNL1        0.2491
      6 O          -3.0604    8.0284   -1.8870 O.co2   1  UNL1       -0.6337
      7 O          -5.5417    7.9771   -1.2527 O.co2   1  UNL1       -0.6337
      8 O          -4.2182    6.9886   -3.5732 O.3     1  UNL1       -0.0930
      9 O          -4.7888    9.5218   -3.0565 O.3     1  UNL1       -0.2057
     10 C          -4.3664   10.7490   -2.4954 C.3     1  UNL1        0.1232
     11 C          -5.5944   11.6092   -2.4344 C.3     1  UNL1        0.1214
     12 O          -5.9372   11.6994   -1.0476 O.3     1  UNL1       -0.3453
     13 C          -5.3490   13.0609   -2.9290 C.3     1  UNL1        0.1593
     14 O          -6.5605   13.5680   -3.5592 O.3     1  UNL1       -0.2421
     15 P          -7.1862   12.8335   -4.9683 P.3     1  UNL1       -0.0004
     16 O          -7.4172   14.0264   -5.8203 O.co2   1  UNL1       -0.6646
     17 O          -6.0678   11.9565   -5.3992 O.co2   1  UNL1       -0.6646
     18 O          -8.3941   12.0654   -4.5382 O.co2   1  UNL1       -0.6646
     19 C          -5.0693   13.7733   -1.6113 C.3     1  UNL1        0.1329
     20 O          -5.2840   15.1965   -1.7383 O.3     1  UNL1       -0.3845
     21 C          -6.1801   13.0760   -0.8013 C.3     1  UNL1        0.1668
     22 N          -6.1102   13.2017    0.6719 N.ar    1  UNL1       -0.2855
     23 C          -7.2049   13.0332    1.4824 C.ar    1  UNL1        0.1004
     24 N          -6.9577   13.1915    2.7489 N.ar    1  UNL1       -0.2306
     25 C          -5.5608   13.4975    2.8146 C.ar    1  UNL1        0.1473
     26 C          -4.6680   13.7663    3.9382 C.ar    1  UNL1        0.1472
     27 N          -5.1106   13.8643    5.2069 N.pl3   1  UNL1       -0.3413
     28 N          -3.3586   13.9922    3.6525 N.ar    1  UNL1       -0.2188
     29 C          -2.9849   13.9743    2.3646 C.ar    1  UNL1        0.1205
     30 N          -3.6977   13.7528    1.2336 N.ar    1  UNL1       -0.2159
     31 C          -5.0223   13.5065    1.5325 C.ar    1  UNL1        0.1674
     32 H          -3.9042   10.6757   -1.5109 H       1  UNL1        0.0631
     33 H          -3.6563   11.1599   -3.2130 H       1  UNL1        0.0631
     34 H          -6.4074   11.1497   -2.9966 H       1  UNL1        0.0650
     35 H          -4.4942   13.1153   -3.6030 H       1  UNL1        0.0694
     36 H          -4.0221   13.5043   -1.7492 H       1  UNL1        0.0667
     37 H          -7.1286   12.6342   -1.1066 H       1  UNL1        0.0866
     38 H          -8.1859   12.7904    1.1013 H       1  UNL1        0.1030
     39 H          -1.9355   14.1702    2.2008 H       1  UNL1        0.1048
     40 H          -5.3797   13.0331    5.7137 H       1  UNL1        0.1438
     41 H          -5.1734   14.7691    5.6512 H       1  UNL1        0.1438
     42 H          -5.0864   15.6261   -0.9028 H       1  UNL1        0.2101
@<TRIPOS>BOND
     1     1     2    1
     2     1     3    1
     3     1     4    1
     4     1     8    1
     5     5     6    1
     6     5     7    1
     7     5     8    1
     8     5     9    1
     9     9    10    1
    10    10    11    1
    11    11    12    1
    12    11    13    1
    13    12    21    1
    14    13    14    1
    15    13    19    1
    16    14    15    1
    17    15    16    1
    18    15    17    1
    19    15    18    1
    20    19    20    1
    21    19    21    1
    22    21    22    1
    23    22    23   ar
    24    22    31   ar
    25    23    24   ar
    26    24    25   ar
    27    25    26   ar
    28    25    31   ar
    29    26    27    1
    30    26    28   ar
    31    28    29   ar
    32    29    30   ar
    33    30    31   ar
    34    32    10    1
    35    33    10    1
    36    11    34    1
    37    13    35    1
    38    19    36    1
    39    21    37    1
    40    38    23    1
    41    39    29    1
    42    40    27    1
    43    41    27    1
    44    42    20    1
@<TRIPOS>SUBSTRUCTURE
     1 UNL1        1 TEMP              0 ****  ****    0 ROOT

########## Name:	9	2162.49  0.335466
@<TRIPOS>MOLECULE
af2_protein.mol29	
 42 44 1 0 0
SMALL
GASTEIGER


@<TRIPOS>ATOM
      1 P          -1.6965    8.1226   -6.7625 P.3     1  UNL1        0.0544
      2 O          -2.5275    8.0558   -7.9815 O.co2   1  UNL1       -0.6615
      3 O          -0.4269    8.9117   -6.9115 O.co2   1  UNL1       -0.6615
      4 O          -1.4985    6.8113   -6.1020 O.co2   1  UNL1       -0.6615
      5 P          -2.2943    9.9053   -4.2479 P.3     1  UNL1        0.2491
      6 O          -1.0551   10.6125   -3.8082 O.co2   1  UNL1       -0.6337
      7 O          -2.7232    8.6934   -3.4984 O.co2   1  UNL1       -0.6337
      8 O          -2.5740    9.0103   -5.6893 O.3     1  UNL1       -0.0930
      9 O          -3.4984   11.0002   -4.2075 O.3     1  UNL1       -0.2057
     10 C          -3.7138   11.8004   -3.0619 C.3     1  UNL1        0.1232
     11 C          -5.0725   11.4185   -2.5521 C.3     1  UNL1        0.1214
     12 O          -5.0234   11.6096   -1.1342 O.3     1  UNL1       -0.3453
     13 C          -6.2061   12.3356   -3.0871 C.3     1  UNL1        0.1593
     14 O          -7.4294   11.5579   -3.2312 O.3     1  UNL1       -0.2421
     15 P          -7.5445   10.3181   -4.4000 P.3     1  UNL1       -0.0004
     16 O          -8.8218   10.6826   -5.0619 O.co2   1  UNL1       -0.6646
     17 O          -6.3247   10.5326   -5.2197 O.co2   1  UNL1       -0.6646
     18 O          -7.5178    9.0283   -3.6454 O.co2   1  UNL1       -0.6646
     19 C          -6.3218   13.3464   -1.9526 C.3     1  UNL1        0.1329
     20 O          -7.6067   14.0069   -1.9789 O.3     1  UNL1       -0.3845
     21 C          -6.2026   12.3266   -0.8028 C.3     1  UNL1        0.1668
     22 N          -5.9320   12.8716    0.5466 N.ar    1  UNL1       -0.2855
     23 C          -6.8577   12.8354    1.5593 C.ar    1  UNL1        0.1004
     24 N          -6.4491   13.3698    2.6718 N.ar    1  UNL1       -0.2306
     25 C          -5.1167   13.8153    2.3973 C.ar    1  UNL1        0.1473
     26 C          -4.1138   14.4769    3.2270 C.ar    1  UNL1        0.1472
     27 N          -4.3712   14.8879    4.4839 N.pl3   1  UNL1       -0.3413
     28 N          -2.9080   14.7376    2.6568 N.ar    1  UNL1       -0.2188
     29 C          -2.7324   14.3910    1.3732 C.ar    1  UNL1        0.1205
     30 N          -3.5670   13.7897    0.4910 N.ar    1  UNL1       -0.2159
     31 C          -4.7828   13.5118    1.0818 C.ar    1  UNL1        0.1674
     32 H          -3.1754   12.3801   -2.3120 H       1  UNL1        0.0631
     33 H          -3.8072   12.3747   -3.9835 H       1  UNL1        0.0631
     34 H          -5.2862   10.3757   -2.7867 H       1  UNL1        0.0650
     35 H          -5.9639   12.8743   -4.0031 H       1  UNL1        0.0694
     36 H          -5.5007   14.0545   -1.8417 H       1  UNL1        0.0667
     37 H          -7.1128   11.7269   -0.8017 H       1  UNL1        0.0866
     38 H          -7.8395   12.4008    1.4422 H       1  UNL1        0.1030
     39 H          -1.7584   14.6326    0.9740 H       1  UNL1        0.1048
     40 H          -4.4395   14.2129    5.2321 H       1  UNL1        0.1438
     41 H          -4.4961   15.8712    4.6780 H       1  UNL1        0.1438
     42 H          -7.9001   14.1726   -1.0799 H       1  UNL1        0.2101
@<TRIPOS>BOND
     1     1     2    1
     2     1     3    1
     3     1     4    1
     4     1     8    1
     5     5     6    1
     6     5     7    1
     7     5     8    1
     8     5     9    1
     9     9    10    1
    10    10    11    1
    11    11    12    1
    12    11    13    1
    13    12    21    1
    14    13    14    1
    15    13    19    1
    16    14    15    1
    17    15    16    1
    18    15    17    1
    19    15    18    1
    20    19    20    1
    21    19    21    1
    22    21    22    1
    23    22    23   ar
    24    22    31   ar
    25    23    24   ar
    26    24    25   ar
    27    25    26   ar
    28    25    31   ar
    29    26    27    1
    30    26    28   ar
    31    28    29   ar
    32    29    30   ar
    33    30    31   ar
    34    32    10    1
    35    33    10    1
    36    11    34    1
    37    13    35    1
    38    19    36    1
    39    21    37    1
    40    38    23    1
    41    39    29    1
    42    40    27    1
    43    41    27    1
    44    42    20    1
@<TRIPOS>SUBSTRUCTURE
     1 UNL1        1 TEMP              0 ****  ****    0 ROOT

########## Name:	10	2250.26  0.290699
@<TRIPOS>MOLECULE
af2_protein.mol210	
 42 44 1 0 0
SMALL
GASTEIGER


@<TRIPOS>ATOM
      1 P          -4.9786    8.1815   -4.3875 P.3     1  UNL1        0.0544
      2 O          -6.3700    7.8174   -4.7229 O.co2   1  UNL1       -0.6615
      3 O          -4.0773    8.3740   -5.5739 O.co2   1  UNL1       -0.6615
      4 O          -4.3799    7.3387   -3.3262 O.co2   1  UNL1       -0.6615
      5 P          -4.0094   10.9950   -3.3858 P.3     1  UNL1        0.2491
      6 O          -2.5862   11.4446   -3.4266 O.co2   1  UNL1       -0.6337
      7 O          -4.4403   10.1047   -2.2740 O.co2   1  UNL1       -0.6337
      8 O          -5.0723    9.6881   -3.7308 O.3     1  UNL1       -0.0930
      9 O          -4.9863   12.2901   -3.2494 O.3     1  UNL1       -0.2057
     10 C          -4.7216   13.3022   -2.2981 C.3     1  UNL1        0.1232
     11 C          -5.7879   13.1618   -1.2517 C.3     1  UNL1        0.1214
     12 O          -5.0998   12.8562   -0.0342 O.3     1  UNL1       -0.3453
     13 C          -6.5756   14.4767   -1.0014 C.3     1  UNL1        0.1593
     14 O          -7.9508   14.1557   -0.6438 O.3     1  UNL1       -0.2421
     15 P          -8.9768   13.3536   -1.7486 P.3     1  UNL1       -0.0004
     16 O         -10.1885   14.2066   -1.6668 O.co2   1  UNL1       -0.6646
     17 O          -8.2198   13.4522   -3.0225 O.co2   1  UNL1       -0.6646
     18 O          -9.1045   11.9484   -1.2560 O.co2   1  UNL1       -0.6646
     19 C          -5.8130   15.0504    0.1868 C.3     1  UNL1        0.1329
     20 O          -6.6219   16.0081    0.9054 O.3     1  UNL1       -0.3845
     21 C          -5.6548   13.7188    0.9469 C.3     1  UNL1        0.1668
     22 N          -4.6713   13.6951    2.0530 N.ar    1  UNL1       -0.2855
     23 C          -5.0090   13.3466    3.3368 C.ar    1  UNL1        0.1004
     24 N          -4.0184   13.3925    4.1776 N.ar    1  UNL1       -0.2306
     25 C          -2.8940   13.8121    3.3974 C.ar    1  UNL1        0.1473
     26 C          -1.4930   14.0395    3.7403 C.ar    1  UNL1        0.1472
     27 N          -1.0362   13.9645    5.0055 N.pl3   1  UNL1       -0.3413
     28 N          -0.6580   14.4089    2.7336 N.ar    1  UNL1       -0.2188
     29 C          -1.1806   14.5592    1.5076 C.ar    1  UNL1        0.1205
     30 N          -2.4466   14.3953    1.0531 N.ar    1  UNL1       -0.2159
     31 C          -3.2851   14.0030    2.0767 C.ar    1  UNL1        0.1674
     32 H          -3.7454   13.4331   -1.8311 H       1  UNL1        0.0631
     33 H          -4.9429   14.1491   -2.9474 H       1  UNL1        0.0631
     34 H          -6.4718   12.3543   -1.5133 H       1  UNL1        0.0650
     35 H          -6.5308   15.1409   -1.8644 H       1  UNL1        0.0694
     36 H          -4.8780   15.4872   -0.1640 H       1  UNL1        0.0667
     37 H          -6.5822   13.2294    1.2442 H       1  UNL1        0.0866
     38 H          -6.0099   13.0593    3.6234 H       1  UNL1        0.1030
     39 H          -0.4703   14.8631    0.7530 H       1  UNL1        0.1048
     40 H          -0.9233   13.0643    5.4493 H       1  UNL1        0.1438
     41 H          -0.8069   14.8086    5.5104 H       1  UNL1        0.1438
     42 H          -6.3273   16.0554    1.8179 H       1  UNL1        0.2101
@<TRIPOS>BOND
     1     1     2    1
     2     1     3    1
     3     1     4    1
     4     1     8    1
     5     5     6    1
     6     5     7    1
     7     5     8    1
     8     5     9    1
     9     9    10    1
    10    10    11    1
    11    11    12    1
    12    11    13    1
    13    12    21    1
    14    13    14    1
    15    13    19    1
    16    14    15    1
    17    15    16    1
    18    15    17    1
    19    15    18    1
    20    19    20    1
    21    19    21    1
    22    21    22    1
    23    22    23   ar
    24    22    31   ar
    25    23    24   ar
    26    24    25   ar
    27    25    26   ar
    28    25    31   ar
    29    26    27    1
    30    26    28   ar
    31    28    29   ar
    32    29    30   ar
    33    30    31   ar
    34    32    10    1
    35    33    10    1
    36    11    34    1
    37    13    35    1
    38    19    36    1
    39    21    37    1
    40    38    23    1
    41    39    29    1
    42    40    27    1
    43    41    27    1
    44    42    20    1
@<TRIPOS>SUBSTRUCTURE
     1 UNL1        1 TEMP              0 ****  ****    0 ROOT

########## Name:	11	2195.36  0.305372
@<TRIPOS>MOLECULE
af2_protein.mol211	
 42 44 1 0 0
SMALL
GASTEIGER


@<TRIPOS>ATOM
      1 P          -2.7919    7.5819   -2.9830 P.3     1  UNL1        0.0544
      2 O          -2.2002    7.0642   -1.7329 O.co2   1  UNL1       -0.6615
      3 O          -4.0267    6.8579   -3.4392 O.co2   1  UNL1       -0.6615
      4 O          -1.8047    7.7985   -4.0662 O.co2   1  UNL1       -0.6615
      5 P          -4.4216   10.2495   -3.2776 P.3     1  UNL1        0.2491
      6 O          -5.3496   10.5626   -4.4045 O.co2   1  UNL1       -0.6337
      7 O          -2.9648   10.4818   -3.4729 O.co2   1  UNL1       -0.6337
      8 O          -3.3476    9.0854   -2.6081 O.3     1  UNL1       -0.0930
      9 O          -4.9250   11.1227   -1.9991 O.3     1  UNL1       -0.2057
     10 C          -5.1752   12.5091   -2.1202 C.3     1  UNL1        0.1232
     11 C          -6.1707   12.8352   -1.0458 C.3     1  UNL1        0.1214
     12 O          -5.4610   12.7134    0.1914 O.3     1  UNL1       -0.3453
     13 C          -6.6926   14.2962   -1.1191 C.3     1  UNL1        0.1593
     14 O          -8.0732   14.3400   -0.6566 O.3     1  UNL1       -0.2421
     15 P          -9.2948   13.4639   -1.4669 P.3     1  UNL1       -0.0004
     16 O         -10.3377   14.5107   -1.6051 O.co2   1  UNL1       -0.6646
     17 O          -8.6243   13.0694   -2.7320 O.co2   1  UNL1       -0.6646
     18 O          -9.6207   12.2956   -0.5935 O.co2   1  UNL1       -0.6646
     19 C          -5.7562   14.9888   -0.1364 C.3     1  UNL1        0.1329
     20 O          -6.3281   16.2293    0.3347 O.3     1  UNL1       -0.3845
     21 C          -5.7816   13.8798    0.9339 C.3     1  UNL1        0.1668
     22 N          -4.7402   13.9425    1.9840 N.ar    1  UNL1       -0.2855
     23 C          -4.9920   13.6293    3.2963 C.ar    1  UNL1        0.1004
     24 N          -3.9610   13.7515    4.0789 N.ar    1  UNL1       -0.2306
     25 C          -2.9006   14.1899    3.2229 C.ar    1  UNL1        0.1473
     26 C          -1.4953   14.4921    3.4793 C.ar    1  UNL1        0.1472
     27 N          -0.9684   14.4864    4.7191 N.pl3   1  UNL1       -0.3413
     28 N          -0.7335   14.8588    2.4152 N.ar    1  UNL1       -0.2188
     29 C          -1.3274   14.9383    1.2154 C.ar    1  UNL1        0.1205
     30 N          -2.6071   14.7011    0.8379 N.ar    1  UNL1       -0.2159
     31 C          -3.3705   14.3120    1.9198 C.ar    1  UNL1        0.1674
     32 H          -4.1600   12.5630   -1.7271 H       1  UNL1        0.0631
     33 H          -5.2895   13.1966   -2.9582 H       1  UNL1        0.0631
     34 H          -7.0040   12.1332   -1.0753 H       1  UNL1        0.0650
     35 H          -6.5985   14.6777   -2.1358 H       1  UNL1        0.0694
     36 H          -4.7216   15.1118   -0.4568 H       1  UNL1        0.0667
     37 H          -6.6682   13.3618    1.2996 H       1  UNL1        0.0866
     38 H          -5.9618   13.3094    3.6481 H       1  UNL1        0.1030
     39 H          -0.6734   15.2439    0.4121 H       1  UNL1        0.1048
     40 H          -0.7902   13.6100    5.1883 H       1  UNL1        0.1438
     41 H          -0.7515   15.3588    5.1796 H       1  UNL1        0.1438
     42 H          -6.0833   16.3666    1.2527 H       1  UNL1        0.2101
@<TRIPOS>BOND
     1     1     2    1
     2     1     3    1
     3     1     4    1
     4     1     8    1
     5     5     6    1
     6     5     7    1
     7     5     8    1
     8     5     9    1
     9     9    10    1
    10    10    11    1
    11    11    12    1
    12    11    13    1
    13    12    21    1
    14    13    14    1
    15    13    19    1
    16    14    15    1
    17    15    16    1
    18    15    17    1
    19    15    18    1
    20    19    20    1
    21    19    21    1
    22    21    22    1
    23    22    23   ar
    24    22    31   ar
    25    23    24   ar
    26    24    25   ar
    27    25    26   ar
    28    25    31   ar
    29    26    27    1
    30    26    28   ar
    31    28    29   ar
    32    29    30   ar
    33    30    31   ar
    34    32    10    1
    35    33    10    1
    36    11    34    1
    37    13    35    1
    38    19    36    1
    39    21    37    1
    40    38    23    1
    41    39    29    1
    42    40    27    1
    43    41    27    1
    44    42    20    1
@<TRIPOS>SUBSTRUCTURE
     1 UNL1        1 TEMP              0 ****  ****    0 ROOT

########## Name:	12	2267.98  0.350898
@<TRIPOS>MOLECULE
af2_protein.mol212	
 42 44 1 0 0
SMALL
GASTEIGER


@<TRIPOS>ATOM
      1 P          -7.4824    4.6143   -1.7848 P.3     1  UNL1        0.0544
      2 O          -7.6019    3.9130   -3.0790 O.co2   1  UNL1       -0.6615
      3 O          -6.4726    4.0237   -0.8423 O.co2   1  UNL1       -0.6615
      4 O          -8.7845    4.9071   -1.1417 O.co2   1  UNL1       -0.6615
      5 P          -6.3764    7.5145   -1.3111 P.3     1  UNL1        0.2491
      6 O          -5.6763    7.0419   -0.0801 O.co2   1  UNL1       -0.6337
      7 O          -7.5293    8.4431   -1.1593 O.co2   1  UNL1       -0.6337
      8 O          -6.8478    6.0889   -2.1492 O.3     1  UNL1       -0.0930
      9 O          -5.6186    8.4163   -2.4349 O.3     1  UNL1       -0.2057
     10 C          -4.7707    9.4834   -2.0583 C.3     1  UNL1        0.1232
     11 C          -5.5396   10.7362   -2.3603 C.3     1  UNL1        0.1214
     12 O          -5.5985   11.4625   -1.1282 O.3     1  UNL1       -0.3453
     13 C          -4.8276   11.6575   -3.3881 C.3     1  UNL1        0.1593
     14 O          -5.8274   12.3573   -4.1836 O.3     1  UNL1       -0.2421
     15 P          -7.0311   11.4927   -5.0323 P.3     1  UNL1       -0.0004
     16 O          -6.7702   11.9495   -6.4200 O.co2   1  UNL1       -0.6646
     17 O          -6.6701   10.0792   -4.7542 O.co2   1  UNL1       -0.6646
     18 O          -8.3376   11.8890   -4.4242 O.co2   1  UNL1       -0.6646
     19 C          -4.0897   12.6136   -2.4588 C.3     1  UNL1        0.1329
     20 O          -3.7488   13.8392   -3.1440 O.3     1  UNL1       -0.3845
     21 C          -5.2430   12.7977   -1.4528 C.3     1  UNL1        0.1668
     22 N          -4.9001   13.4117   -0.1503 N.ar    1  UNL1       -0.2855
     23 C          -3.9882   14.4302   -0.0288 C.ar    1  UNL1        0.1004
     24 N          -3.8062   14.8375    1.1924 N.ar    1  UNL1       -0.2306
     25 C          -4.6756   14.0216    1.9847 C.ar    1  UNL1        0.1473
     26 C          -4.9519   13.9880    3.4180 C.ar    1  UNL1        0.1472
     27 N          -4.2780   14.7481    4.3029 N.pl3   1  UNL1       -0.3413
     28 N          -5.8792   13.0943    3.8523 N.ar    1  UNL1       -0.2188
     29 C          -6.4560   12.2958    2.9422 C.ar    1  UNL1        0.1205
     30 N          -6.2905   12.2105    1.5999 N.ar    1  UNL1       -0.2159
     31 C          -5.3610   13.1326    1.1638 C.ar    1  UNL1        0.1674
     32 H          -4.2261    9.5885   -1.1199 H       1  UNL1        0.0631
     33 H          -4.0783    9.2636   -2.8708 H       1  UNL1        0.0631
     34 H          -6.5445   10.4907   -2.7039 H       1  UNL1        0.0650
     35 H          -4.2253   10.9874   -4.0013 H       1  UNL1        0.0694
     36 H          -3.6469   11.7408   -2.9384 H       1  UNL1        0.0667
     37 H          -4.8511   13.3947   -2.2763 H       1  UNL1        0.0866
     38 H          -3.4673   14.8561   -0.8737 H       1  UNL1        0.1030
     39 H          -7.1760   11.6012    3.3491 H       1  UNL1        0.1048
     40 H          -4.4654   15.7386    4.3639 H       1  UNL1        0.1438
     41 H          -3.5851   14.3273    4.9054 H       1  UNL1        0.1438
     42 H          -2.8868   14.1419   -2.8492 H       1  UNL1        0.2101
@<TRIPOS>BOND
     1     1     2    1
     2     1     3    1
     3     1     4    1
     4     1     8    1
     5     5     6    1
     6     5     7    1
     7     5     8    1
     8     5     9    1
     9     9    10    1
    10    10    11    1
    11    11    12    1
    12    11    13    1
    13    12    21    1
    14    13    14    1
    15    13    19    1
    16    14    15    1
    17    15    16    1
    18    15    17    1
    19    15    18    1
    20    19    20    1
    21    19    21    1
    22    21    22    1
    23    22    23   ar
    24    22    31   ar
    25    23    24   ar
    26    24    25   ar
    27    25    26   ar
    28    25    31   ar
    29    26    27    1
    30    26    28   ar
    31    28    29   ar
    32    29    30   ar
    33    30    31   ar
    34    32    10    1
    35    33    10    1
    36    11    34    1
    37    13    35    1
    38    19    36    1
    39    21    37    1
    40    38    23    1
    41    39    29    1
    42    40    27    1
    43    41    27    1
    44    42    20    1
@<TRIPOS>SUBSTRUCTURE
     1 UNL1        1 TEMP              0 ****  ****    0 ROOT

########## Name:	13	2225.58  0.343978
@<TRIPOS>MOLECULE
af2_protein.mol213	
 42 44 1 0 0
SMALL
GASTEIGER


@<TRIPOS>ATOM
      1 P          -7.5782    5.0131   -2.8703 P.3     1  UNL1        0.0544
      2 O          -8.4855    5.4456   -3.9523 O.co2   1  UNL1       -0.6615
      3 O          -6.3383    4.3049   -3.3372 O.co2   1  UNL1       -0.6615
      4 O          -8.2654    4.3202   -1.7557 O.co2   1  UNL1       -0.6615
      5 P          -5.4717    7.1630   -1.9761 P.3     1  UNL1        0.2491
      6 O          -4.2530    6.9606   -2.8145 O.co2   1  UNL1       -0.6337
      7 O          -5.4852    6.6030   -0.5974 O.co2   1  UNL1       -0.6337
      8 O          -6.9973    6.4052   -2.2110 O.3     1  UNL1       -0.0930
      9 O          -5.7829    8.7555   -2.1074 O.3     1  UNL1       -0.2057
     10 C          -4.7893    9.7164   -1.8091 C.3     1  UNL1        0.1232
     11 C          -5.3767   11.0402   -2.2019 C.3     1  UNL1        0.1214
     12 O          -5.3969   11.8265   -1.0059 O.3     1  UNL1       -0.3453
     13 C          -4.5070   11.8138   -3.2301 C.3     1  UNL1        0.1593
     14 O          -5.3720   12.5952   -4.1038 O.3     1  UNL1       -0.2421
     15 P          -6.1775   11.8623   -5.4193 P.3     1  UNL1       -0.0004
     16 O          -5.8576   12.8213   -6.5058 O.co2   1  UNL1       -0.6646
     17 O          -5.4996   10.5447   -5.5198 O.co2   1  UNL1       -0.6646
     18 O          -7.6130   11.7479   -5.0192 O.co2   1  UNL1       -0.6646
     19 C          -3.6947   12.7126   -2.3057 C.3     1  UNL1        0.1329
     20 O          -3.1689   13.8510   -3.0236 O.3     1  UNL1       -0.3845
     21 C          -4.8587   13.0890   -1.3678 C.3     1  UNL1        0.1668
     22 N          -4.4984   13.7166   -0.0765 N.ar    1  UNL1       -0.2855
     23 C          -3.4108   14.5411    0.0682 C.ar    1  UNL1        0.1004
     24 N          -3.2434   14.9925    1.2759 N.ar    1  UNL1       -0.2306
     25 C          -4.3179   14.4245    2.0322 C.ar    1  UNL1        0.1473
     26 C          -4.7034   14.5508    3.4348 C.ar    1  UNL1        0.1472
     27 N          -3.9586   15.2255    4.3321 N.pl3   1  UNL1       -0.3413
     28 N          -5.8230   13.8920    3.8343 N.ar    1  UNL1       -0.2188
     29 C          -6.4789   13.1588    2.9228 C.ar    1  UNL1        0.1205
     30 N          -6.2326   12.9448    1.6075 N.ar    1  UNL1       -0.2159
     31 C          -5.1049   13.6308    1.2048 C.ar    1  UNL1        0.1674
     32 H          -4.2782    9.7967   -0.8497 H       1  UNL1        0.0631
     33 H          -4.0952    9.3721   -2.5757 H       1  UNL1        0.0631
     34 H          -6.3884   10.9073   -2.5852 H       1  UNL1        0.0650
     35 H          -3.6748   11.3741   -3.7797 H       1  UNL1        0.0694
     36 H          -2.9031   12.0557   -1.9454 H       1  UNL1        0.0667
     37 H          -4.2924   13.5351   -2.1854 H       1  UNL1        0.0866
     38 H          -2.7517   14.7928   -0.7495 H       1  UNL1        0.1030
     39 H          -7.3537   12.6517    3.3023 H       1  UNL1        0.1048
     40 H          -3.9452   16.2353    4.3202 H       1  UNL1        0.1438
     41 H          -3.4134   14.7213    5.0167 H       1  UNL1        0.1438
     42 H          -2.9160   14.5347   -2.3990 H       1  UNL1        0.2101
@<TRIPOS>BOND
     1     1     2    1
     2     1     3    1
     3     1     4    1
     4     1     8    1
     5     5     6    1
     6     5     7    1
     7     5     8    1
     8     5     9    1
     9     9    10    1
    10    10    11    1
    11    11    12    1
    12    11    13    1
    13    12    21    1
    14    13    14    1
    15    13    19    1
    16    14    15    1
    17    15    16    1
    18    15    17    1
    19    15    18    1
    20    19    20    1
    21    19    21    1
    22    21    22    1
    23    22    23   ar
    24    22    31   ar
    25    23    24   ar
    26    24    25   ar
    27    25    26   ar
    28    25    31   ar
    29    26    27    1
    30    26    28   ar
    31    28    29   ar
    32    29    30   ar
    33    30    31   ar
    34    32    10    1
    35    33    10    1
    36    11    34    1
    37    13    35    1
    38    19    36    1
    39    21    37    1
    40    38    23    1
    41    39    29    1
    42    40    27    1
    43    41    27    1
    44    42    20    1
@<TRIPOS>SUBSTRUCTURE
     1 UNL1        1 TEMP              0 ****  ****    0 ROOT

########## Name:	14	2280.57  0.300883
@<TRIPOS>MOLECULE
af2_protein.mol214	
 42 44 1 0 0
SMALL
GASTEIGER


@<TRIPOS>ATOM
      1 P          -2.9989    7.6737   -2.5824 P.3     1  UNL1        0.0544
      2 O          -3.5343    7.1281   -1.3188 O.co2   1  UNL1       -0.6615
      3 O          -3.7490    7.2539   -3.8145 O.co2   1  UNL1       -0.6615
      4 O          -1.5295    7.5400   -2.7157 O.co2   1  UNL1       -0.6615
      5 P          -4.0159   10.5096   -3.4670 P.3     1  UNL1        0.2491
      6 O          -4.6868   11.2925   -4.5468 O.co2   1  UNL1       -0.6337
      7 O          -2.5287   10.4653   -3.4424 O.co2   1  UNL1       -0.6337
      8 O          -3.2722    9.2952   -2.5032 O.3     1  UNL1       -0.0930
      9 O          -4.9590   11.3344   -2.4274 O.3     1  UNL1       -0.2057
     10 C          -4.9486   12.7482   -2.4030 C.3     1  UNL1        0.1232
     11 C          -6.0683   13.1445   -1.4859 C.3     1  UNL1        0.1214
     12 O          -5.5539   12.9969   -0.1582 O.3     1  UNL1       -0.3453
     13 C          -6.4868   14.6322   -1.6397 C.3     1  UNL1        0.1593
     14 O          -7.9149   14.7615   -1.3830 O.3     1  UNL1       -0.2421
     15 P          -9.0498   13.8516   -2.2778 P.3     1  UNL1       -0.0004
     16 O         -10.1272   14.8564   -2.4569 O.co2   1  UNL1       -0.6646
     17 O          -8.2923   13.5114   -3.5092 O.co2   1  UNL1       -0.6646
     18 O          -9.3741   12.6532   -1.4457 O.co2   1  UNL1       -0.6646
     19 C          -5.6635   15.2814   -0.5338 C.3     1  UNL1        0.1329
     20 O          -6.2234   16.5586   -0.1555 O.3     1  UNL1       -0.3845
     21 C          -5.9093   14.1889    0.5255 C.3     1  UNL1        0.1668
     22 N          -5.0292   14.2040    1.7156 N.ar    1  UNL1       -0.2855
     23 C          -5.5097   14.0650    2.9937 C.ar    1  UNL1        0.1004
     24 N          -4.5927   14.1131    3.9141 N.ar    1  UNL1       -0.2306
     25 C          -3.3663   14.3031    3.2006 C.ar    1  UNL1        0.1473
     26 C          -1.9809   14.4205    3.6464 C.ar    1  UNL1        0.1472
     27 N          -1.6411   14.4628    4.9494 N.pl3   1  UNL1       -0.3413
     28 N          -1.0284   14.5626    2.6874 N.ar    1  UNL1       -0.2188
     29 C          -1.4275   14.6068    1.4078 C.ar    1  UNL1        0.1205
     30 N          -2.6628   14.5227    0.8569 N.ar    1  UNL1       -0.2159
     31 C          -3.6228   14.3606    1.8350 C.ar    1  UNL1        0.1674
     32 H          -3.9997   12.7480   -1.8665 H       1  UNL1        0.0631
     33 H          -4.8994   13.4309   -3.2512 H       1  UNL1        0.0631
     34 H          -6.9285   12.4916   -1.6337 H       1  UNL1        0.0650
     35 H          -6.2366   14.9140   -2.6624 H       1  UNL1        0.0694
     36 H          -4.9788   15.3694   -1.3773 H       1  UNL1        0.0667
     37 H          -6.9097   13.8458    0.7892 H       1  UNL1        0.0866
     38 H          -6.5578   13.9276    3.2155 H       1  UNL1        0.1030
     39 H          -0.6268   14.7308    0.6938 H       1  UNL1        0.1048
     40 H          -1.6730   13.6216    5.5074 H       1  UNL1        0.1438
     41 H          -1.3546   15.3360    5.3684 H       1  UNL1        0.1438
     42 H          -5.6089   17.0200    0.4199 H       1  UNL1        0.2101
@<TRIPOS>BOND
     1     1     2    1
     2     1     3    1
     3     1     4    1
     4     1     8    1
     5     5     6    1
     6     5     7    1
     7     5     8    1
     8     5     9    1
     9     9    10    1
    10    10    11    1
    11    11    12    1
    12    11    13    1
    13    12    21    1
    14    13    14    1
    15    13    19    1
    16    14    15    1
    17    15    16    1
    18    15    17    1
    19    15    18    1
    20    19    20    1
    21    19    21    1
    22    21    22    1
    23    22    23   ar
    24    22    31   ar
    25    23    24   ar
    26    24    25   ar
    27    25    26   ar
    28    25    31   ar
    29    26    27    1
    30    26    28   ar
    31    28    29   ar
    32    29    30   ar
    33    30    31   ar
    34    32    10    1
    35    33    10    1
    36    11    34    1
    37    13    35    1
    38    19    36    1
    39    21    37    1
    40    38    23    1
    41    39    29    1
    42    40    27    1
    43    41    27    1
    44    42    20    1
@<TRIPOS>SUBSTRUCTURE
     1 UNL1        1 TEMP              0 ****  ****    0 ROOT

########## Name:	15	2257.5  0.298041
@<TRIPOS>MOLECULE
af2_protein.mol215	
 42 44 1 0 0
SMALL
GASTEIGER


@<TRIPOS>ATOM
      1 P          -4.0504    7.0947   -3.2308 P.3     1  UNL1        0.0544
      2 O          -4.5765    6.2265   -2.1582 O.co2   1  UNL1       -0.6615
      3 O          -4.8160    7.0304   -4.5218 O.co2   1  UNL1       -0.6615
      4 O          -2.5834    6.9970   -3.4129 O.co2   1  UNL1       -0.6615
      5 P          -4.4520   10.2046   -3.3939 P.3     1  UNL1        0.2491
      6 O          -4.2647   11.0629   -4.6011 O.co2   1  UNL1       -0.6337
      7 O          -3.2432    9.7031   -2.6856 O.co2   1  UNL1       -0.6337
      8 O          -4.3117    8.6338   -2.7084 O.3     1  UNL1       -0.0930
      9 O          -5.2248   11.0778   -2.2579 O.3     1  UNL1       -0.2057
     10 C          -4.8116   12.3941   -1.9484 C.3     1  UNL1        0.1232
     11 C          -5.7562   12.8747   -0.8861 C.3     1  UNL1        0.1214
     12 O          -5.0833   12.6589    0.3588 O.3     1  UNL1       -0.3453
     13 C          -6.0530   14.3966   -0.9751 C.3     1  UNL1        0.1593
     14 O          -7.4155   14.6504   -0.5264 O.3     1  UNL1       -0.2421
     15 P          -8.7481   13.9707   -1.3502 P.3     1  UNL1       -0.0004
     16 O          -9.6812   15.1246   -1.3618 O.co2   1  UNL1       -0.6646
     17 O          -8.1655   13.6161   -2.6696 O.co2   1  UNL1       -0.6646
     18 O          -9.1630   12.7733   -0.5578 O.co2   1  UNL1       -0.6646
     19 C          -5.0319   14.9500    0.0115 C.3     1  UNL1        0.1329
     20 O          -5.4159   16.2660    0.4680 O.3     1  UNL1       -0.3845
     21 C          -5.2321   13.8666    1.0896 C.3     1  UNL1        0.1668
     22 N          -4.2020   13.7819    2.1493 N.ar    1  UNL1       -0.2855
     23 C          -4.5122   13.5581    3.4674 C.ar    1  UNL1        0.1004
     24 N          -3.4805   13.5254    4.2578 N.ar    1  UNL1       -0.2306
     25 C          -2.3551   13.7477    3.4014 C.ar    1  UNL1        0.1473
     26 C          -0.9204   13.8113    3.6648 C.ar    1  UNL1        0.1472
     27 N          -0.4099   13.7539    4.9103 N.pl3   1  UNL1       -0.3413
     28 N          -0.1001   14.0079    2.5991 N.ar    1  UNL1       -0.2188
     29 C          -0.6640   14.1508    1.3907 C.ar    1  UNL1        0.1205
     30 N          -1.9630   14.1257    1.0057 N.ar    1  UNL1       -0.2159
     31 C          -2.7887   13.9080    2.0899 C.ar    1  UNL1        0.1674
     32 H          -3.8031   12.2990   -1.5458 H       1  UNL1        0.0631
     33 H          -4.8146   13.0837   -2.7924 H       1  UNL1        0.0631
     34 H          -6.6849   12.3050   -0.9186 H       1  UNL1        0.0650
     35 H          -5.8917   14.7593   -1.9902 H       1  UNL1        0.0694
     36 H          -4.0675   14.9590   -0.4961 H       1  UNL1        0.0667
     37 H          -6.1970   13.5206    1.4604 H       1  UNL1        0.0866
     38 H          -5.5248   13.4210    3.8174 H       1  UNL1        0.1030
     39 H           0.0379   14.3139    0.5863 H       1  UNL1        0.1048
     40 H          -0.3885   12.8751    5.4074 H       1  UNL1        0.1438
     41 H          -0.0488   14.5900    5.3470 H       1  UNL1        0.1438
     42 H          -4.9976   16.4467    1.3130 H       1  UNL1        0.2101
@<TRIPOS>BOND
     1     1     2    1
     2     1     3    1
     3     1     4    1
     4     1     8    1
     5     5     6    1
     6     5     7    1
     7     5     8    1
     8     5     9    1
     9     9    10    1
    10    10    11    1
    11    11    12    1
    12    11    13    1
    13    12    21    1
    14    13    14    1
    15    13    19    1
    16    14    15    1
    17    15    16    1
    18    15    17    1
    19    15    18    1
    20    19    20    1
    21    19    21    1
    22    21    22    1
    23    22    23   ar
    24    22    31   ar
    25    23    24   ar
    26    24    25   ar
    27    25    26   ar
    28    25    31   ar
    29    26    27    1
    30    26    28   ar
    31    28    29   ar
    32    29    30   ar
    33    30    31   ar
    34    32    10    1
    35    33    10    1
    36    11    34    1
    37    13    35    1
    38    19    36    1
    39    21    37    1
    40    38    23    1
    41    39    29    1
    42    40    27    1
    43    41    27    1
    44    42    20    1
@<TRIPOS>SUBSTRUCTURE
     1 UNL1        1 TEMP              0 ****  ****    0 ROOT

########## Name:	16	2251.99  0.314485
@<TRIPOS>MOLECULE
af2_protein.mol216	
 42 44 1 0 0
SMALL
GASTEIGER


@<TRIPOS>ATOM
      1 P          -7.8858    5.9561   -3.0464 P.3     1  UNL1        0.0544
      2 O          -8.9945    5.9095   -4.0209 O.co2   1  UNL1       -0.6615
      3 O          -6.5922    5.3729   -3.5399 O.co2   1  UNL1       -0.6615
      4 O          -8.2613    5.4888   -1.6916 O.co2   1  UNL1       -0.6615
      5 P          -6.3396    8.5168   -2.0921 P.3     1  UNL1        0.2491
      6 O          -4.9288    8.0284   -2.0806 O.co2   1  UNL1       -0.6337
      7 O          -7.0133    8.7700   -0.7897 O.co2   1  UNL1       -0.6337
      8 O          -7.5383    7.5547   -2.8629 O.3     1  UNL1       -0.0930
      9 O          -6.0042    9.6906   -3.1692 O.3     1  UNL1       -0.2057
     10 C          -4.9860   10.6386   -2.9162 C.3     1  UNL1        0.1232
     11 C          -5.6631   11.9774   -2.9505 C.3     1  UNL1        0.1214
     12 O          -5.7114   12.4233   -1.5911 O.3     1  UNL1       -0.3453
     13 C          -4.8628   13.0469   -3.7430 C.3     1  UNL1        0.1593
     14 O          -5.7912   13.9695   -4.3825 O.3     1  UNL1       -0.2421
     15 P          -6.8891   13.4217   -5.5704 P.3     1  UNL1       -0.0004
     16 O          -6.9128   14.5920   -6.4827 O.co2   1  UNL1       -0.6646
     17 O          -6.2086   12.2158   -6.1075 O.co2   1  UNL1       -0.6646
     18 O          -8.1584   13.0999   -4.8499 O.co2   1  UNL1       -0.6646
     19 C          -4.0925   13.7264   -2.6173 C.3     1  UNL1        0.1329
     20 O          -3.6529   15.0441   -3.0150 O.3     1  UNL1       -0.3845
     21 C          -5.2609   13.7691   -1.6127 C.3     1  UNL1        0.1668
     22 N          -4.9178   14.0625   -0.2030 N.ar    1  UNL1       -0.2855
     23 C          -3.6250   14.2371    0.2237 C.ar    1  UNL1        0.1004
     24 N          -3.5136   14.4768    1.4966 N.ar    1  UNL1       -0.2306
     25 C          -4.8570   14.4658    1.9911 C.ar    1  UNL1        0.1473
     26 C          -5.4128   14.6827    3.3237 C.ar    1  UNL1        0.1472
     27 N          -4.6375   14.8513    4.4125 N.pl3   1  UNL1       -0.3413
     28 N          -6.7653   14.6359    3.4491 N.ar    1  UNL1       -0.2188
     29 C          -7.4889   14.3735    2.3508 C.ar    1  UNL1        0.1205
     30 N          -7.1116   14.1436    1.0698 N.ar    1  UNL1       -0.2159
     31 C          -5.7386   14.2103    0.9465 C.ar    1  UNL1        0.1674
     32 H          -4.4638   10.5008   -1.9694 H       1  UNL1        0.0631
     33 H          -4.2855   10.5516   -3.7466 H       1  UNL1        0.0631
     34 H          -6.6711   11.8822   -3.3542 H       1  UNL1        0.0650
     35 H          -4.1907   12.5883   -4.4682 H       1  UNL1        0.0694
     36 H          -3.2673   13.0156   -2.5765 H       1  UNL1        0.0667
     37 H          -4.3988   13.9269   -2.2609 H       1  UNL1        0.0866
     38 H          -2.7748   14.1805   -0.4400 H       1  UNL1        0.1030
     39 H          -8.5556   14.3396    2.5158 H       1  UNL1        0.1048
     40 H          -4.1482   15.7234    4.5541 H       1  UNL1        0.1438
     41 H          -4.5455   14.1055    5.0873 H       1  UNL1        0.1438
     42 H          -3.3151   15.5139   -2.2489 H       1  UNL1        0.2101
@<TRIPOS>BOND
     1     1     2    1
     2     1     3    1
     3     1     4    1
     4     1     8    1
     5     5     6    1
     6     5     7    1
     7     5     8    1
     8     5     9    1
     9     9    10    1
    10    10    11    1
    11    11    12    1
    12    11    13    1
    13    12    21    1
    14    13    14    1
    15    13    19    1
    16    14    15    1
    17    15    16    1
    18    15    17    1
    19    15    18    1
    20    19    20    1
    21    19    21    1
    22    21    22    1
    23    22    23   ar
    24    22    31   ar
    25    23    24   ar
    26    24    25   ar
    27    25    26   ar
    28    25    31   ar
    29    26    27    1
    30    26    28   ar
    31    28    29   ar
    32    29    30   ar
    33    30    31   ar
    34    32    10    1
    35    33    10    1
    36    11    34    1
    37    13    35    1
    38    19    36    1
    39    21    37    1
    40    38    23    1
    41    39    29    1
    42    40    27    1
    43    41    27    1
    44    42    20    1
@<TRIPOS>SUBSTRUCTURE
     1 UNL1        1 TEMP              0 ****  ****    0 ROOT

########## Name:	17	2304.53  0.295747
@<TRIPOS>MOLECULE
af2_protein.mol217	
 42 44 1 0 0
SMALL
GASTEIGER


@<TRIPOS>ATOM
      1 P          -7.4695    7.3969   -4.1083 P.3     1  UNL1        0.0544
      2 O          -8.8598    7.1558   -3.6725 O.co2   1  UNL1       -0.6615
      3 O          -7.3387    8.1942   -5.3748 O.co2   1  UNL1       -0.6615
      4 O          -6.6182    6.1846   -4.0873 O.co2   1  UNL1       -0.6615
      5 P          -5.4905    9.4649   -2.8177 P.3     1  UNL1        0.2491
      6 O          -5.4914   10.2084   -4.1124 O.co2   1  UNL1       -0.6337
      7 O          -4.2331    8.7977   -2.3837 O.co2   1  UNL1       -0.6337
      8 O          -6.8238    8.3890   -2.9643 O.3     1  UNL1       -0.0930
      9 O          -5.9456   10.5241   -1.6682 O.3     1  UNL1       -0.2057
     10 C          -5.3255   11.7904   -1.5615 C.3     1  UNL1        0.1232
     11 C          -6.2606   12.6302   -0.7416 C.3     1  UNL1        0.1214
     12 O          -5.6885   12.6814    0.5696 O.3     1  UNL1       -0.3453
     13 C          -6.3625   14.0970   -1.2418 C.3     1  UNL1        0.1593
     14 O          -7.7059   14.6011   -0.9903 O.3     1  UNL1       -0.2421
     15 P          -9.0619   13.8918   -1.7485 P.3     1  UNL1       -0.0004
     16 O          -9.8416   15.1030   -2.1055 O.co2   1  UNL1       -0.6646
     17 O          -8.4513   13.1728   -2.8956 O.co2   1  UNL1       -0.6646
     18 O          -9.6689   12.9692   -0.7414 O.co2   1  UNL1       -0.6646
     19 C          -5.3368   14.7813   -0.3463 C.3     1  UNL1        0.1329
     20 O          -5.5803   16.2038   -0.2759 O.3     1  UNL1       -0.3845
     21 C          -5.7275   14.0477    0.9519 C.3     1  UNL1        0.1668
     22 N          -4.7753   14.1386    2.0816 N.ar    1  UNL1       -0.2855
     23 C          -5.1676   14.0244    3.3918 C.ar    1  UNL1        0.1004
     24 N          -4.1970   14.1404    4.2490 N.ar    1  UNL1       -0.2306
     25 C          -3.0273   14.3545    3.4521 C.ar    1  UNL1        0.1473
     26 C          -1.6226   14.5421    3.8035 C.ar    1  UNL1        0.1472
     27 N          -1.2031   14.6425    5.0798 N.pl3   1  UNL1       -0.3413
     28 N          -0.7395   14.6891    2.7809 N.ar    1  UNL1       -0.2188
     29 C          -1.2203   14.6735    1.5290 C.ar    1  UNL1        0.1205
     30 N          -2.4833   14.5215    1.0621 N.ar    1  UNL1       -0.2159
     31 C          -3.3719   14.3550    2.1048 C.ar    1  UNL1        0.1674
     32 H          -4.3600   11.7000   -1.0637 H       1  UNL1        0.0631
     33 H          -5.1974   12.2292   -2.5509 H       1  UNL1        0.0631
     34 H          -7.2491   12.1724   -0.7062 H       1  UNL1        0.0650
     35 H          -6.0940   14.1808   -2.2948 H       1  UNL1        0.0694
     36 H          -4.3146   14.5565   -0.6507 H       1  UNL1        0.0667
     37 H          -6.6939   13.6743    1.2905 H       1  UNL1        0.0866
     38 H          -6.1929   13.8531    3.6851 H       1  UNL1        0.1030
     39 H          -0.4723   14.8047    0.7611 H       1  UNL1        0.1048
     40 H          -1.1643   13.8202    5.6650 H       1  UNL1        0.1438
     41 H          -0.9274   15.5402    5.4516 H       1  UNL1        0.1438
     42 H          -5.2777   16.5390    0.5712 H       1  UNL1        0.2101
@<TRIPOS>BOND
     1     1     2    1
     2     1     3    1
     3     1     4    1
     4     1     8    1
     5     5     6    1
     6     5     7    1
     7     5     8    1
     8     5     9    1
     9     9    10    1
    10    10    11    1
    11    11    12    1
    12    11    13    1
    13    12    21    1
    14    13    14    1
    15    13    19    1
    16    14    15    1
    17    15    16    1
    18    15    17    1
    19    15    18    1
    20    19    20    1
    21    19    21    1
    22    21    22    1
    23    22    23   ar
    24    22    31   ar
    25    23    24   ar
    26    24    25   ar
    27    25    26   ar
    28    25    31   ar
    29    26    27    1
    30    26    28   ar
    31    28    29   ar
    32    29    30   ar
    33    30    31   ar
    34    32    10    1
    35    33    10    1
    36    11    34    1
    37    13    35    1
    38    19    36    1
    39    21    37    1
    40    38    23    1
    41    39    29    1
    42    40    27    1
    43    41    27    1
    44    42    20    1
@<TRIPOS>SUBSTRUCTURE
     1 UNL1        1 TEMP              0 ****  ****    0 ROOT

########## Name:	18	2210.39  0.305162
@<TRIPOS>MOLECULE
af2_protein.mol218	
 42 44 1 0 0
SMALL
GASTEIGER


@<TRIPOS>ATOM
      1 P          -2.2261    8.4070   -3.5195 P.3     1  UNL1        0.0544
      2 O          -2.2227    7.4540   -2.3913 O.co2   1  UNL1       -0.6615
      3 O          -3.2319    8.1037   -4.5935 O.co2   1  UNL1       -0.6615
      4 O          -0.8762    8.7112   -4.0486 O.co2   1  UNL1       -0.6615
      5 P          -3.5439   11.2557   -3.4378 P.3     1  UNL1        0.2491
      6 O          -4.4890   11.4127   -4.5829 O.co2   1  UNL1       -0.6337
      7 O          -2.2018   11.8912   -3.5334 O.co2   1  UNL1       -0.6337
      8 O          -2.7630    9.8274   -2.8839 O.3     1  UNL1       -0.0930
      9 O          -4.3029   11.8419   -2.1222 O.3     1  UNL1       -0.2057
     10 C          -4.9183   13.1147   -2.1460 C.3     1  UNL1        0.1232
     11 C          -5.9548   13.0827   -1.0615 C.3     1  UNL1        0.1214
     12 O          -5.2322   12.9068    0.1616 O.3     1  UNL1       -0.3453
     13 C          -6.7411   14.4154   -0.9278 C.3     1  UNL1        0.1593
     14 O          -8.1045   14.1314   -0.5007 O.3     1  UNL1       -0.2421
     15 P          -9.0828   13.0350   -1.3711 P.3     1  UNL1       -0.0004
     16 O         -10.4265   13.6192   -1.1351 O.co2   1  UNL1       -0.6646
     17 O          -8.5684   13.1735   -2.7574 O.co2   1  UNL1       -0.6646
     18 O          -8.8200   11.6850   -0.7862 O.co2   1  UNL1       -0.6646
     19 C          -5.9487   15.1111    0.1724 C.3     1  UNL1        0.1329
     20 O          -6.7417   16.1372    0.8095 O.3     1  UNL1       -0.3845
     21 C          -5.7638   13.8662    1.0625 C.3     1  UNL1        0.1668
     22 N          -4.7502   13.9595    2.1373 N.ar    1  UNL1       -0.2855
     23 C          -5.0742   13.8875    3.4690 C.ar    1  UNL1        0.1004
     24 N          -4.0563   13.9989    4.2701 N.ar    1  UNL1       -0.2306
     25 C          -2.9262   14.1629    3.4069 C.ar    1  UNL1        0.1473
     26 C          -1.5004   14.3223    3.6782 C.ar    1  UNL1        0.1472
     27 N          -1.0105   14.4426    4.9274 N.pl3   1  UNL1       -0.3413
     28 N          -0.6703   14.4212    2.6067 N.ar    1  UNL1       -0.2188
     29 C          -1.2180   14.3879    1.3829 C.ar    1  UNL1        0.1205
     30 N          -2.5076   14.2576    0.9878 N.ar    1  UNL1       -0.2159
     31 C          -3.3427   14.1397    2.0803 C.ar    1  UNL1        0.1674
     32 H          -3.9302   13.2951   -1.7225 H       1  UNL1        0.0631
     33 H          -5.1611   13.8890   -2.8737 H       1  UNL1        0.0631
     34 H          -6.6421   12.2513   -1.2184 H       1  UNL1        0.0650
     35 H          -6.7165   14.8462   -1.9287 H       1  UNL1        0.0694
     36 H          -4.9494   15.4652   -0.0806 H       1  UNL1        0.0667
     37 H          -6.7196   13.5265    1.4614 H       1  UNL1        0.0866
     38 H          -6.0861   13.7501    3.8207 H       1  UNL1        0.1030
     39 H          -0.5093   14.4808    0.5733 H       1  UNL1        0.1048
     40 H          -0.9607   13.6340    5.5305 H       1  UNL1        0.1438
     41 H          -0.6930   15.3415    5.2609 H       1  UNL1        0.1438
     42 H          -6.5376   16.1637    1.7472 H       1  UNL1        0.2101
@<TRIPOS>BOND
     1     1     2    1
     2     1     3    1
     3     1     4    1
     4     1     8    1
     5     5     6    1
     6     5     7    1
     7     5     8    1
     8     5     9    1
     9     9    10    1
    10    10    11    1
    11    11    12    1
    12    11    13    1
    13    12    21    1
    14    13    14    1
    15    13    19    1
    16    14    15    1
    17    15    16    1
    18    15    17    1
    19    15    18    1
    20    19    20    1
    21    19    21    1
    22    21    22    1
    23    22    23   ar
    24    22    31   ar
    25    23    24   ar
    26    24    25   ar
    27    25    26   ar
    28    25    31   ar
    29    26    27    1
    30    26    28   ar
    31    28    29   ar
    32    29    30   ar
    33    30    31   ar
    34    32    10    1
    35    33    10    1
    36    11    34    1
    37    13    35    1
    38    19    36    1
    39    21    37    1
    40    38    23    1
    41    39    29    1
    42    40    27    1
    43    41    27    1
    44    42    20    1
@<TRIPOS>SUBSTRUCTURE
     1 UNL1        1 TEMP              0 ****  ****    0 ROOT

########## Name:	19	2287.22  0.294165
@<TRIPOS>MOLECULE
af2_protein.mol219	
 42 44 1 0 0
SMALL
GASTEIGER


@<TRIPOS>ATOM
      1 P          -2.9675    7.8596   -1.8064 P.3     1  UNL1        0.0544
      2 O          -3.2550    7.7495   -0.3620 O.co2   1  UNL1       -0.6615
      3 O          -3.9083    7.0945   -2.6932 O.co2   1  UNL1       -0.6615
      4 O          -1.5408    7.6546   -2.1488 O.co2   1  UNL1       -0.6615
      5 P          -4.3587   10.3074   -3.1962 P.3     1  UNL1        0.2491
      6 O          -5.7493    9.7971   -3.3829 O.co2   1  UNL1       -0.6337
      7 O          -3.5802   10.7024   -4.4013 O.co2   1  UNL1       -0.6337
      8 O          -3.2745    9.4308   -2.1897 O.3     1  UNL1       -0.0930
      9 O          -4.6920   11.6609   -2.3551 O.3     1  UNL1       -0.2057
     10 C          -5.6539   12.5867   -2.8209 C.3     1  UNL1        0.1232
     11 C          -6.6395   12.7433   -1.7004 C.3     1  UNL1        0.1214
     12 O          -5.8607   12.7794   -0.4999 O.3     1  UNL1       -0.3453
     13 C          -7.4273   14.0804   -1.7617 C.3     1  UNL1        0.1593
     14 O          -8.7680   13.8763   -1.2297 O.3     1  UNL1       -0.2421
     15 P          -9.7769   12.6461   -1.8505 P.3     1  UNL1       -0.0004
     16 O         -11.0991   13.3169   -1.7862 O.co2   1  UNL1       -0.6646
     17 O          -9.2364   12.4450   -3.2191 O.co2   1  UNL1       -0.6646
     18 O          -9.5781   11.4570   -0.9670 O.co2   1  UNL1       -0.6646
     19 C          -6.5900   14.9537   -0.8352 C.3     1  UNL1        0.1329
     20 O          -7.3595   16.0754   -0.3481 O.3     1  UNL1       -0.3845
     21 C          -6.3567   13.8803    0.2461 C.3     1  UNL1        0.1668
     22 N          -5.2957   14.1554    1.2410 N.ar    1  UNL1       -0.2855
     23 C          -5.4843   13.9888    2.5902 C.ar    1  UNL1        0.1004
     24 N          -4.4460   14.2887    3.3128 N.ar    1  UNL1       -0.2306
     25 C          -3.4498   14.7002    2.3707 C.ar    1  UNL1        0.1473
     26 C          -2.0681   15.1425    2.5354 C.ar    1  UNL1        0.1472
     27 N          -1.5086   15.3328    3.7461 N.pl3   1  UNL1       -0.3413
     28 N          -1.3690   15.4334    1.4068 N.ar    1  UNL1       -0.2188
     29 C          -2.0002   15.3157    0.2294 C.ar    1  UNL1        0.1205
     30 N          -3.2656   14.9326   -0.0682 N.ar    1  UNL1       -0.2159
     31 C          -3.9638   14.6217    1.0809 C.ar    1  UNL1        0.1674
     32 H          -4.6487   12.8356   -2.4808 H       1  UNL1        0.0631
     33 H          -5.9346   13.2246   -3.6589 H       1  UNL1        0.0631
     34 H          -7.3280   11.8985   -1.6802 H       1  UNL1        0.0650
     35 H          -7.4512   14.3304   -2.8224 H       1  UNL1        0.0694
     36 H          -5.9925   15.2166   -1.7081 H       1  UNL1        0.0667
     37 H          -7.1865   13.3429    0.7052 H       1  UNL1        0.0866
     38 H          -6.4139   13.6391    3.0144 H       1  UNL1        0.1030
     39 H          -1.3964   15.5701   -0.6291 H       1  UNL1        0.1048
     40 H          -1.2451   14.5384    4.3114 H       1  UNL1        0.1438
     41 H          -1.3527   16.2701    4.0886 H       1  UNL1        0.1438
     42 H          -6.8088   16.6192    0.2200 H       1  UNL1        0.2101
@<TRIPOS>BOND
     1     1     2    1
     2     1     3    1
     3     1     4    1
     4     1     8    1
     5     5     6    1
     6     5     7    1
     7     5     8    1
     8     5     9    1
     9     9    10    1
    10    10    11    1
    11    11    12    1
    12    11    13    1
    13    12    21    1
    14    13    14    1
    15    13    19    1
    16    14    15    1
    17    15    16    1
    18    15    17    1
    19    15    18    1
    20    19    20    1
    21    19    21    1
    22    21    22    1
    23    22    23   ar
    24    22    31   ar
    25    23    24   ar
    26    24    25   ar
    27    25    26   ar
    28    25    31   ar
    29    26    27    1
    30    26    28   ar
    31    28    29   ar
    32    29    30   ar
    33    30    31   ar
    34    32    10    1
    35    33    10    1
    36    11    34    1
    37    13    35    1
    38    19    36    1
    39    21    37    1
    40    38    23    1
    41    39    29    1
    42    40    27    1
    43    41    27    1
    44    42    20    1
@<TRIPOS>SUBSTRUCTURE
     1 UNL1        1 TEMP              0 ****  ****    0 ROOT

########## Name:	0	36704.3  0.34591
@<TRIPOS>MOLECULE
af2_protein.mol20	
 42 44 1 0 0
SMALL
GASTEIGER


@<TRIPOS>ATOM
      1 P          -0.7239   18.2733   -2.5373 P.3     1  UNL1        0.0544
      2 O           0.4157   17.8718   -3.3866 O.co2   1  UNL1       -0.6615
      3 O          -1.9698   18.6404   -3.2921 O.co2   1  UNL1       -0.6615
      4 O          -0.3674   19.2504   -1.4823 O.co2   1  UNL1       -0.6615
      5 P          -2.5290   16.3183   -0.8704 P.3     1  UNL1        0.2491
      6 O          -3.6815   16.7174   -1.7316 O.co2   1  UNL1       -0.6337
      7 O          -2.5484   16.7073    0.5658 O.co2   1  UNL1       -0.6337
      8 O          -1.1582   16.9097   -1.7238 O.3     1  UNL1       -0.0930
      9 O          -2.4056   14.6983   -0.9732 O.3     1  UNL1       -0.2057
     10 C          -3.5350   13.8704   -0.7774 C.3     1  UNL1        0.1232
     11 C          -4.0646   14.2244    0.5812 C.3     1  UNL1        0.1214
     12 O          -5.2081   15.0535    0.3486 O.3     1  UNL1       -0.3453
     13 C          -4.5630   12.9913    1.3833 C.3     1  UNL1        0.1593
     14 O          -4.3303   13.2127    2.8042 O.3     1  UNL1       -0.2421
     15 P          -2.7447   13.3919    3.4128 P.3     1  UNL1       -0.0004
     16 O          -2.7861   12.4584    4.5657 O.co2   1  UNL1       -0.6646
     17 O          -1.9076   12.9471    2.2695 O.co2   1  UNL1       -0.6646
     18 O          -2.5781   14.8442    3.7242 O.co2   1  UNL1       -0.6646
     19 C          -6.0509   13.0131    1.0549 C.3     1  UNL1        0.1329
     20 O          -6.8080   12.2768    2.0410 O.3     1  UNL1       -0.3845
     21 C          -6.2320   14.5383    1.1858 C.3     1  UNL1        0.1668
     22 N          -7.4796   15.1116    0.6326 N.ar    1  UNL1       -0.2855
     23 C          -8.4249   15.7237    1.4172 C.ar    1  UNL1        0.1004
     24 N          -9.4597   16.1580    0.7608 N.ar    1  UNL1       -0.2306
     25 C          -9.2006   15.8115   -0.6038 C.ar    1  UNL1        0.1473
     26 C          -9.9587   16.0318   -1.8320 C.ar    1  UNL1        0.1472
     27 N         -11.1923   16.5734   -1.8337 N.pl3   1  UNL1       -0.3413
     28 N          -9.4018   15.5982   -2.9934 N.ar    1  UNL1       -0.2188
     29 C          -8.2122   14.9824   -2.9277 C.ar    1  UNL1        0.1205
     30 N          -7.4112   14.7032   -1.8709 N.ar    1  UNL1       -0.2159
     31 C          -7.9745   15.1621   -0.6976 C.ar    1  UNL1        0.1674
     32 H          -4.2871   14.0664   -1.5417 H       1  UNL1        0.0631
     33 H          -3.2395   12.8216   -0.8029 H       1  UNL1        0.0631
     34 H          -3.3118   14.7684    1.1517 H       1  UNL1        0.0650
     35 H          -4.0904   12.0716    1.0387 H       1  UNL1        0.0694
     36 H          -6.2507   12.6636    0.0421 H       1  UNL1        0.0667
     37 H          -6.0845   14.8576    2.2175 H       1  UNL1        0.0866
     38 H          -8.3184   15.8349    2.4862 H       1  UNL1        0.1030
     39 H          -7.8263   14.6523   -3.8809 H       1  UNL1        0.1048
     40 H         -11.3098   17.5630   -1.6698 H       1  UNL1        0.1438
     41 H         -11.9998   15.9896   -1.9988 H       1  UNL1        0.1438
     42 H          -7.6904   12.6484    2.1104 H       1  UNL1        0.2101
@<TRIPOS>BOND
     1     1     2    1
     2     1     3    1
     3     1     4    1
     4     1     8    1
     5     5     6    1
     6     5     7    1
     7     5     8    1
     8     5     9    1
     9     9    10    1
    10    10    11    1
    11    11    12    1
    12    11    13    1
    13    12    21    1
    14    13    14    1
    15    13    19    1
    16    14    15    1
    17    15    16    1
    18    15    17    1
    19    15    18    1
    20    19    20    1
    21    19    21    1
    22    21    22    1
    23    22    23   ar
    24    22    31   ar
    25    23    24   ar
    26    24    25   ar
    27    25    26   ar
    28    25    31   ar
    29    26    27    1
    30    26    28   ar
    31    28    29   ar
    32    29    30   ar
    33    30    31   ar
    34    32    10    1
    35    33    10    1
    36    11    34    1
    37    13    35    1
    38    19    36    1
    39    21    37    1
    40    38    23    1
    41    39    29    1
    42    40    27    1
    43    41    27    1
    44    42    20    1
@<TRIPOS>SUBSTRUCTURE
     1 UNL1        1 TEMP              0 ****  ****    0 ROOT

########## Name:	1	2675.38  0.351208
@<TRIPOS>MOLECULE
af2_protein.mol21	
 42 44 1 0 0
SMALL
GASTEIGER


@<TRIPOS>ATOM
      1 P          -2.2846   13.8478    3.4239 P.3     1  UNL1        0.0544
      2 O          -0.8773   13.6579    3.0183 O.co2   1  UNL1       -0.6615
      3 O          -2.6250   15.2399    3.8745 O.co2   1  UNL1       -0.6615
      4 O          -2.7906   12.7955    4.3357 O.co2   1  UNL1       -0.6615
      5 P          -4.7275   14.0807    1.4652 P.3     1  UNL1        0.2491
      6 O          -4.9268   15.4791    1.9490 O.co2   1  UNL1       -0.6337
      7 O          -5.7654   13.0641    1.7869 O.co2   1  UNL1       -0.6337
      8 O          -3.1607   13.6691    2.0417 O.3     1  UNL1       -0.0930
      9 O          -4.5582   14.1636   -0.1519 O.3     1  UNL1       -0.2057
     10 C          -5.4863   14.8792   -0.9431 C.3     1  UNL1        0.1232
     11 C          -6.8272   14.2816   -0.6327 C.3     1  UNL1        0.1214
     12 O          -7.4699   15.2067    0.2505 O.3     1  UNL1       -0.3453
     13 C          -7.7409   14.1483   -1.8816 C.3     1  UNL1        0.1593
     14 O          -8.5898   12.9735   -1.7362 O.3     1  UNL1       -0.2421
     15 P          -7.9099   11.4093   -1.6480 P.3     1  UNL1       -0.0004
     16 O          -8.7540   10.6872   -2.6322 O.co2   1  UNL1       -0.6646
     17 O          -6.5057   11.6430   -2.0712 O.co2   1  UNL1       -0.6646
     18 O          -8.0229   10.9844   -0.2195 O.co2   1  UNL1       -0.6646
     19 C          -8.5528   15.4344   -1.7861 C.3     1  UNL1        0.1329
     20 O          -9.7820   15.3258   -2.5376 O.3     1  UNL1       -0.3845
     21 C          -8.7820   15.3786   -0.2628 C.3     1  UNL1        0.1668
     22 N          -9.2682   16.6180    0.3843 N.ar    1  UNL1       -0.2855
     23 C         -10.4942   16.7025    0.9955 C.ar    1  UNL1        0.1004
     24 N         -10.7567   17.8715    1.5002 N.ar    1  UNL1       -0.2306
     25 C          -9.6016   18.6650    1.2082 C.ar    1  UNL1        0.1473
     26 C          -9.2616   20.0513    1.5154 C.ar    1  UNL1        0.1472
     27 N         -10.1302   20.8961    2.1043 N.pl3   1  UNL1       -0.3413
     28 N          -8.0413   20.4961    1.1151 N.ar    1  UNL1       -0.2188
     29 C          -7.2487   19.6423    0.4508 C.ar    1  UNL1        0.1205
     30 N          -7.4363   18.3493    0.0912 N.ar    1  UNL1       -0.2159
     31 C          -8.6697   17.8991    0.5163 C.ar    1  UNL1        0.1674
     32 H          -5.4720   15.9375   -0.6822 H       1  UNL1        0.0631
     33 H          -5.2544   14.7509   -2.0004 H       1  UNL1        0.0631
     34 H          -6.7074   13.3136   -0.1459 H       1  UNL1        0.0650
     35 H          -7.1583   14.1100   -2.8019 H       1  UNL1        0.0694
     36 H          -7.9703   16.3077   -2.0797 H       1  UNL1        0.0667
     37 H          -9.4144   14.5311    0.0018 H       1  UNL1        0.0866
     38 H         -11.1807   15.8706    1.0522 H       1  UNL1        0.1030
     39 H          -6.2974   20.0564    0.1509 H       1  UNL1        0.1048
     40 H         -10.3351   20.8045    3.0890 H       1  UNL1        0.1438
     41 H         -10.5766   21.6211    1.5610 H       1  UNL1        0.1438
     42 H         -10.4536   15.8816   -2.1354 H       1  UNL1        0.2101
@<TRIPOS>BOND
     1     1     2    1
     2     1     3    1
     3     1     4    1
     4     1     8    1
     5     5     6    1
     6     5     7    1
     7     5     8    1
     8     5     9    1
     9     9    10    1
    10    10    11    1
    11    11    12    1
    12    11    13    1
    13    12    21    1
    14    13    14    1
    15    13    19    1
    16    14    15    1
    17    15    16    1
    18    15    17    1
    19    15    18    1
    20    19    20    1
    21    19    21    1
    22    21    22    1
    23    22    23   ar
    24    22    31   ar
    25    23    24   ar
    26    24    25   ar
    27    25    26   ar
    28    25    31   ar
    29    26    27    1
    30    26    28   ar
    31    28    29   ar
    32    29    30   ar
    33    30    31   ar
    34    32    10    1
    35    33    10    1
    36    11    34    1
    37    13    35    1
    38    19    36    1
    39    21    37    1
    40    38    23    1
    41    39    29    1
    42    40    27    1
    43    41    27    1
    44    42    20    1
@<TRIPOS>SUBSTRUCTURE
     1 UNL1        1 TEMP              0 ****  ****    0 ROOT

########## Name:	2	2781.49  0.329799
@<TRIPOS>MOLECULE
af2_protein.mol22	
 42 44 1 0 0
SMALL
GASTEIGER


@<TRIPOS>ATOM
      1 P          -3.0835   12.1526    4.9349 P.3     1  UNL1        0.0544
      2 O          -2.0429   12.7566    5.7912 O.co2   1  UNL1       -0.6615
      3 O          -4.4909   12.3586    5.4185 O.co2   1  UNL1       -0.6615
      4 O          -2.7965   10.7530    4.5430 O.co2   1  UNL1       -0.6615
      5 P          -4.0586   13.2930    2.1767 P.3     1  UNL1        0.2491
      6 O          -5.4023   13.5096    2.7903 O.co2   1  UNL1       -0.6337
      7 O          -3.9255   12.2719    1.1025 O.co2   1  UNL1       -0.6337
      8 O          -3.0346   13.0060    3.5280 O.3     1  UNL1       -0.0930
      9 O          -3.5712   14.7331    1.5944 O.3     1  UNL1       -0.2057
     10 C          -4.4199   15.5078    0.7705 C.3     1  UNL1        0.1232
     11 C          -4.7795   14.6214   -0.3857 C.3     1  UNL1        0.1214
     12 O          -6.1103   14.1631   -0.1249 O.3     1  UNL1       -0.3453
     13 C          -4.8248   15.3752   -1.7429 C.3     1  UNL1        0.1593
     14 O          -4.4133   14.4737   -2.8105 O.3     1  UNL1       -0.2421
     15 P          -2.8366   13.8181   -2.8420 P.3     1  UNL1       -0.0004
     16 O          -2.4570   14.0840   -4.2518 O.co2   1  UNL1       -0.6646
     17 O          -2.1248   14.6401   -1.8304 O.co2   1  UNL1       -0.6646
     18 O          -2.9712   12.3860   -2.4364 O.co2   1  UNL1       -0.6646
     19 C          -6.3085   15.7094   -1.8401 C.3     1  UNL1        0.1329
     20 O          -6.6885   15.9780   -3.2080 O.3     1  UNL1       -0.3845
     21 C          -6.8235   14.3459   -1.3384 C.3     1  UNL1        0.1668
     22 N          -8.2474   14.2766   -0.9395 N.ar    1  UNL1       -0.2855
     23 C          -9.1637   13.4950   -1.5977 C.ar    1  UNL1        0.1004
     24 N         -10.3685   13.5677   -1.1145 N.ar    1  UNL1       -0.2306
     25 C         -10.2703   14.4861   -0.0208 C.ar    1  UNL1        0.1473
     26 C         -11.2569   14.9813    0.9350 C.ar    1  UNL1        0.1472
     27 N         -12.5658   14.6745    0.8484 N.pl3   1  UNL1       -0.3413
     28 N         -10.8186   15.8391    1.8937 N.ar    1  UNL1       -0.2188
     29 C          -9.5231   16.1857    1.8814 C.ar    1  UNL1        0.1205
     30 N          -8.5107   15.8179    1.0591 N.ar    1  UNL1       -0.2159
     31 C          -8.9590   14.9333    0.0994 C.ar    1  UNL1        0.1674
     32 H          -5.3159   15.8016    1.3173 H       1  UNL1        0.0631
     33 H          -3.8913   16.3920    0.4146 H       1  UNL1        0.0631
     34 H          -4.0925   13.7770   -0.4441 H       1  UNL1        0.0650
     35 H          -4.2120   16.2763   -1.7212 H       1  UNL1        0.0694
     36 H          -6.5884   16.5230   -1.1711 H       1  UNL1        0.0667
     37 H          -6.5831   13.5564   -2.0505 H       1  UNL1        0.0866
     38 H          -8.9064   12.8739   -2.4430 H       1  UNL1        0.1030
     39 H          -9.2377   16.8767    2.6608 H       1  UNL1        0.1048
     40 H         -12.8866   13.7520    1.1059 H       1  UNL1        0.1438
     41 H         -13.2265   15.3669    0.5257 H       1  UNL1        0.1438
     42 H          -7.6091   15.7385   -3.3377 H       1  UNL1        0.2101
@<TRIPOS>BOND
     1     1     2    1
     2     1     3    1
     3     1     4    1
     4     1     8    1
     5     5     6    1
     6     5     7    1
     7     5     8    1
     8     5     9    1
     9     9    10    1
    10    10    11    1
    11    11    12    1
    12    11    13    1
    13    12    21    1
    14    13    14    1
    15    13    19    1
    16    14    15    1
    17    15    16    1
    18    15    17    1
    19    15    18    1
    20    19    20    1
    21    19    21    1
    22    21    22    1
    23    22    23   ar
    24    22    31   ar
    25    23    24   ar
    26    24    25   ar
    27    25    26   ar
    28    25    31   ar
    29    26    27    1
    30    26    28   ar
    31    28    29   ar
    32    29    30   ar
    33    30    31   ar
    34    32    10    1
    35    33    10    1
    36    11    34    1
    37    13    35    1
    38    19    36    1
    39    21    37    1
    40    38    23    1
    41    39    29    1
    42    40    27    1
    43    41    27    1
    44    42    20    1
@<TRIPOS>SUBSTRUCTURE
     1 UNL1        1 TEMP              0 ****  ****    0 ROOT

########## Name:	3	2605.67  0.310955
@<TRIPOS>MOLECULE
af2_protein.mol23	
 42 44 1 0 0
SMALL
GASTEIGER


@<TRIPOS>ATOM
      1 P          -5.2794   10.8289    4.3873 P.3     1  UNL1        0.0544
      2 O          -5.3444   11.0077    5.8518 O.co2   1  UNL1       -0.6615
      3 O          -6.6149   10.7002    3.7113 O.co2   1  UNL1       -0.6615
      4 O          -4.3008    9.8048    3.9533 O.co2   1  UNL1       -0.6615
      5 P          -4.6477   13.0915    2.3038 P.3     1  UNL1        0.2491
      6 O          -6.0258   12.9136    1.7576 O.co2   1  UNL1       -0.6337
      7 O          -3.4909   12.7164    1.4463 O.co2   1  UNL1       -0.6337
      8 O          -4.6919   12.2517    3.8037 O.3     1  UNL1       -0.0930
      9 O          -4.5064   14.6595    2.7184 O.3     1  UNL1       -0.2057
     10 C          -4.8621   15.6848    1.8121 C.3     1  UNL1        0.1232
     11 C          -4.0391   15.4396    0.5815 C.3     1  UNL1        0.1214
     12 O          -4.9275   14.8390   -0.3668 O.3     1  UNL1       -0.3453
     13 C          -3.5083   16.7460   -0.0693 C.3     1  UNL1        0.1593
     14 O          -2.2131   16.4882   -0.6840 O.3     1  UNL1       -0.2421
     15 P          -0.8737   16.0163    0.2647 P.3     1  UNL1       -0.0004
     16 O           0.1657   16.9437   -0.2473 O.co2   1  UNL1       -0.6646
     17 O          -1.3426   16.2937    1.6463 O.co2   1  UNL1       -0.6646
     18 O          -0.6684   14.5593    0.0026 O.co2   1  UNL1       -0.6646
     19 C          -4.5804   17.0027   -1.1215 C.3     1  UNL1        0.1329
     20 O          -4.0827   17.8702   -2.1644 O.3     1  UNL1       -0.3845
     21 C          -4.7194   15.5389   -1.5839 C.3     1  UNL1        0.1668
     22 N          -5.9070   15.2083   -2.4033 N.ar    1  UNL1       -0.2855
     23 C          -5.8138   14.7861   -3.7060 C.ar    1  UNL1        0.1004
     24 N          -6.9606   14.5520   -4.2719 N.ar    1  UNL1       -0.2306
     25 C          -7.9336   14.8406   -3.2623 C.ar    1  UNL1        0.1473
     26 C          -9.3917   14.7635   -3.2556 C.ar    1  UNL1        0.1472
     27 N         -10.1055   14.4628   -4.3579 N.pl3   1  UNL1       -0.3413
     28 N         -10.0264   15.0823   -2.0970 N.ar    1  UNL1       -0.2188
     29 C          -9.2749   15.4643   -1.0539 C.ar    1  UNL1        0.1205
     30 N          -7.9321   15.5909   -0.9229 N.ar    1  UNL1       -0.2159
     31 C          -7.2932   15.2485   -2.0972 C.ar    1  UNL1        0.1674
     32 H          -5.9248   15.6315    1.5757 H       1  UNL1        0.0631
     33 H          -4.6210   16.6596    2.2360 H       1  UNL1        0.0631
     34 H          -3.2126   14.7653    0.8063 H       1  UNL1        0.0650
     35 H          -3.4537   17.5601    0.6534 H       1  UNL1        0.0694
     36 H          -5.5026   17.3812   -0.6809 H       1  UNL1        0.0667
     37 H          -3.8062   15.2000   -2.0731 H       1  UNL1        0.0866
     38 H          -4.8703   14.6594   -4.2162 H       1  UNL1        0.1030
     39 H          -9.8365   15.7141   -0.1659 H       1  UNL1        0.1048
     40 H         -10.1294   13.5131   -4.7008 H       1  UNL1        0.1438
     41 H         -10.6168   15.1872   -4.8415 H       1  UNL1        0.1438
     42 H          -4.5325   17.6708   -2.9887 H       1  UNL1        0.2101
@<TRIPOS>BOND
     1     1     2    1
     2     1     3    1
     3     1     4    1
     4     1     8    1
     5     5     6    1
     6     5     7    1
     7     5     8    1
     8     5     9    1
     9     9    10    1
    10    10    11    1
    11    11    12    1
    12    11    13    1
    13    12    21    1
    14    13    14    1
    15    13    19    1
    16    14    15    1
    17    15    16    1
    18    15    17    1
    19    15    18    1
    20    19    20    1
    21    19    21    1
    22    21    22    1
    23    22    23   ar
    24    22    31   ar
    25    23    24   ar
    26    24    25   ar
    27    25    26   ar
    28    25    31   ar
    29    26    27    1
    30    26    28   ar
    31    28    29   ar
    32    29    30   ar
    33    30    31   ar
    34    32    10    1
    35    33    10    1
    36    11    34    1
    37    13    35    1
    38    19    36    1
    39    21    37    1
    40    38    23    1
    41    39    29    1
    42    40    27    1
    43    41    27    1
    44    42    20    1
@<TRIPOS>SUBSTRUCTURE
     1 UNL1        1 TEMP              0 ****  ****    0 ROOT

########## Name:	4	2863.11  0.344707
@<TRIPOS>MOLECULE
af2_protein.mol24	
 42 44 1 0 0
SMALL
GASTEIGER


@<TRIPOS>ATOM
      1 P          -7.9753   20.8263    1.4483 P.3     1  UNL1        0.0544
      2 O          -9.1823   21.0619    2.2660 O.co2   1  UNL1       -0.6615
      3 O          -6.6919   20.7683    2.2269 O.co2   1  UNL1       -0.6615
      4 O          -7.8929   21.6850    0.2438 O.co2   1  UNL1       -0.6615
      5 P          -7.1308   18.0710    0.2018 P.3     1  UNL1        0.2491
      6 O          -5.9197   18.0964    1.0745 O.co2   1  UNL1       -0.6337
      7 O          -6.9471   18.1876   -1.2702 O.co2   1  UNL1       -0.6337
      8 O          -8.1389   19.2947    0.8674 O.3     1  UNL1       -0.0930
      9 O          -7.9119   16.6794    0.5240 O.3     1  UNL1       -0.2057
     10 C          -7.2237   15.4441    0.5249 C.3     1  UNL1        0.1232
     11 C          -6.5900   15.3339   -0.8308 C.3     1  UNL1        0.1214
     12 O          -5.2072   15.6514   -0.6403 O.3     1  UNL1       -0.3453
     13 C          -6.6415   13.8956   -1.4146 C.3     1  UNL1        0.1593
     14 O          -6.7565   13.9665   -2.8650 O.3     1  UNL1       -0.2421
     15 P          -8.1246   14.6773   -3.5997 P.3     1  UNL1       -0.0004
     16 O          -8.4675   13.6393   -4.6034 O.co2   1  UNL1       -0.6646
     17 O          -9.0751   14.7969   -2.4648 O.co2   1  UNL1       -0.6646
     18 O          -7.6761   16.0031   -4.1239 O.co2   1  UNL1       -0.6646
     19 C          -5.2783   13.3615   -0.9918 C.3     1  UNL1        0.1329
     20 O          -4.8885   12.2361   -1.8098 O.3     1  UNL1       -0.3845
     21 C          -4.4837   14.6398   -1.3244 C.3     1  UNL1        0.1668
     22 N          -3.1129   14.7351   -0.7739 N.ar    1  UNL1       -0.2855
     23 C          -1.9962   14.7782   -1.5708 C.ar    1  UNL1        0.1004
     24 N          -0.8770   14.8511   -0.9133 N.ar    1  UNL1       -0.2306
     25 C          -1.2613   14.8589    0.4656 C.ar    1  UNL1        0.1473
     26 C          -0.4846   14.9416    1.6992 C.ar    1  UNL1        0.1472
     27 N           0.8625   14.9273    1.7086 N.pl3   1  UNL1       -0.3413
     28 N          -1.1754   14.9602    2.8695 N.ar    1  UNL1       -0.2188
     29 C          -2.5128   14.8797    2.8105 C.ar    1  UNL1        0.1205
     30 N          -3.3535   14.7884    1.7516 N.ar    1  UNL1       -0.2159
     31 C          -2.6465   14.7880    0.5664 C.ar    1  UNL1        0.1674
     32 H          -6.4607   15.4346    1.3032 H       1  UNL1        0.0631
     33 H          -7.9257   14.6245    0.6781 H       1  UNL1        0.0631
     34 H          -7.0491   16.0402   -1.5226 H       1  UNL1        0.0650
     35 H          -7.4527   13.3143   -0.9764 H       1  UNL1        0.0694
     36 H          -5.2445   13.1247    0.0716 H       1  UNL1        0.0667
     37 H          -4.4823   14.8252   -2.3985 H       1  UNL1        0.0866
     38 H          -2.0432   14.7537   -2.6495 H       1  UNL1        0.1030
     39 H          -3.0041   14.8893    3.7722 H       1  UNL1        0.1048
     40 H           1.3784   15.7444    1.4148 H       1  UNL1        0.1438
     41 H           1.3567   14.0994    2.0093 H       1  UNL1        0.1438
     42 H          -3.9311   12.2006   -1.8706 H       1  UNL1        0.2101
@<TRIPOS>BOND
     1     1     2    1
     2     1     3    1
     3     1     4    1
     4     1     8    1
     5     5     6    1
     6     5     7    1
     7     5     8    1
     8     5     9    1
     9     9    10    1
    10    10    11    1
    11    11    12    1
    12    11    13    1
    13    12    21    1
    14    13    14    1
    15    13    19    1
    16    14    15    1
    17    15    16    1
    18    15    17    1
    19    15    18    1
    20    19    20    1
    21    19    21    1
    22    21    22    1
    23    22    23   ar
    24    22    31   ar
    25    23    24   ar
    26    24    25   ar
    27    25    26   ar
    28    25    31   ar
    29    26    27    1
    30    26    28   ar
    31    28    29   ar
    32    29    30   ar
    33    30    31   ar
    34    32    10    1
    35    33    10    1
    36    11    34    1
    37    13    35    1
    38    19    36    1
    39    21    37    1
    40    38    23    1
    41    39    29    1
    42    40    27    1
    43    41    27    1
    44    42    20    1
@<TRIPOS>SUBSTRUCTURE
     1 UNL1        1 TEMP              0 ****  ****    0 ROOT

########## Name:	5	2814.58  0.348325
@<TRIPOS>MOLECULE
af2_protein.mol25	
 42 44 1 0 0
SMALL
GASTEIGER


@<TRIPOS>ATOM
      1 P          -8.2505   20.7328    1.2384 P.3     1  UNL1        0.0544
      2 O          -9.2118   21.1812    2.2660 O.co2   1  UNL1       -0.6615
      3 O          -6.8137   20.7420    1.6771 O.co2   1  UNL1       -0.6615
      4 O          -8.4627   21.3543   -0.0896 O.co2   1  UNL1       -0.6615
      5 P          -7.7754   17.7540    0.3670 P.3     1  UNL1        0.2491
      6 O          -6.3841   17.8661    0.8971 O.co2   1  UNL1       -0.6337
      7 O          -7.9646   17.5928   -1.1002 O.co2   1  UNL1       -0.6337
      8 O          -8.5712   19.1337    1.0148 O.3     1  UNL1       -0.0930
      9 O          -8.4662   16.4906    1.1266 O.3     1  UNL1       -0.2057
     10 C          -7.8134   15.2381    1.1929 C.3     1  UNL1        0.1232
     11 C          -7.5404   14.8491   -0.2305 C.3     1  UNL1        0.1214
     12 O          -6.1506   15.1153   -0.4463 O.3     1  UNL1       -0.3453
     13 C          -7.7522   13.3346   -0.5016 C.3     1  UNL1        0.1593
     14 O          -8.2259   13.1496   -1.8667 O.3     1  UNL1       -0.2421
     15 P          -9.7264   13.7943   -2.3663 P.3     1  UNL1       -0.0004
     16 O         -10.3210   12.6141   -3.0416 O.co2   1  UNL1       -0.6646
     17 O         -10.3612   14.1711   -1.0776 O.co2   1  UNL1       -0.6646
     18 O          -9.4088   14.9759   -3.2247 O.co2   1  UNL1       -0.6646
     19 C          -6.3326   12.8076   -0.3309 C.3     1  UNL1        0.1329
     20 O          -6.1724   11.5326   -0.9917 O.3     1  UNL1       -0.3845
     21 C          -5.6325   13.9570   -1.0824 C.3     1  UNL1        0.1668
     22 N          -4.1666   14.0705   -0.9109 N.ar    1  UNL1       -0.2855
     23 C          -3.2845   13.9048   -1.9493 C.ar    1  UNL1        0.1004
     24 N          -2.0356   14.0302   -1.6105 N.ar    1  UNL1       -0.2306
     25 C          -2.0624   14.3084   -0.2065 C.ar    1  UNL1        0.1473
     26 C          -1.0008   14.5669    0.7620 C.ar    1  UNL1        0.1472
     27 N           0.3055   14.4768    0.4452 N.pl3   1  UNL1       -0.3413
     28 N          -1.3764   14.8358    2.0401 N.ar    1  UNL1       -0.2188
     29 C          -2.6869   14.8234    2.3252 C.ar    1  UNL1        0.1205
     30 N          -3.7668   14.5916    1.5401 N.ar    1  UNL1       -0.2159
     31 C          -3.3790   14.3369    0.2404 C.ar    1  UNL1        0.1674
     32 H          -6.8800   15.3248    1.7491 H       1  UNL1        0.0631
     33 H          -8.4636   14.5014    1.6645 H       1  UNL1        0.0631
     34 H          -8.1503   15.4446   -0.9099 H       1  UNL1        0.0650
     35 H          -8.4344   12.8895    0.2227 H       1  UNL1        0.0694
     36 H          -6.0363   12.7645    0.7171 H       1  UNL1        0.0667
     37 H          -5.8980   13.9455   -2.1395 H       1  UNL1        0.0866
     38 H          -3.6003   13.6893   -2.9594 H       1  UNL1        0.1030
     39 H          -2.9217   15.0343    3.3581 H       1  UNL1        0.1048
     40 H           0.7404   15.1964   -0.1144 H       1  UNL1        0.1438
     41 H           0.8500   13.6894    0.7671 H       1  UNL1        0.1438
     42 H          -5.2612   11.4315   -1.2762 H       1  UNL1        0.2101
@<TRIPOS>BOND
     1     1     2    1
     2     1     3    1
     3     1     4    1
     4     1     8    1
     5     5     6    1
     6     5     7    1
     7     5     8    1
     8     5     9    1
     9     9    10    1
    10    10    11    1
    11    11    12    1
    12    11    13    1
    13    12    21    1
    14    13    14    1
    15    13    19    1
    16    14    15    1
    17    15    16    1
    18    15    17    1
    19    15    18    1
    20    19    20    1
    21    19    21    1
    22    21    22    1
    23    22    23   ar
    24    22    31   ar
    25    23    24   ar
    26    24    25   ar
    27    25    26   ar
    28    25    31   ar
    29    26    27    1
    30    26    28   ar
    31    28    29   ar
    32    29    30   ar
    33    30    31   ar
    34    32    10    1
    35    33    10    1
    36    11    34    1
    37    13    35    1
    38    19    36    1
    39    21    37    1
    40    38    23    1
    41    39    29    1
    42    40    27    1
    43    41    27    1
    44    42    20    1
@<TRIPOS>SUBSTRUCTURE
     1 UNL1        1 TEMP              0 ****  ****    0 ROOT

########## Name:	6	2661.2  0.343516
@<TRIPOS>MOLECULE
af2_protein.mol26	
 42 44 1 0 0
SMALL
GASTEIGER


@<TRIPOS>ATOM
      1 P          -9.5389   20.3832   -0.3140 P.3     1  UNL1        0.0544
      2 O         -10.9475   20.7917   -0.1414 O.co2   1  UNL1       -0.6615
      3 O          -8.7153   20.4253    0.9418 O.co2   1  UNL1       -0.6615
      4 O          -8.8713   21.0164   -1.4752 O.co2   1  UNL1       -0.6615
      5 P          -8.5295   17.4301   -0.6594 P.3     1  UNL1        0.2491
      6 O          -7.8024   17.5728    0.6368 O.co2   1  UNL1       -0.6337
      7 O          -7.7325   17.2834   -1.9074 O.co2   1  UNL1       -0.6337
      8 O          -9.5956   18.7791   -0.6797 O.3     1  UNL1       -0.0930
      9 O          -9.5090   16.1386   -0.5080 O.3     1  UNL1       -0.2057
     10 C          -9.0130   14.9033   -0.0310 C.3     1  UNL1        0.1232
     11 C          -7.8821   14.5409   -0.9482 C.3     1  UNL1        0.1214
     12 O          -6.6838   14.8473   -0.2276 O.3     1  UNL1       -0.3453
     13 C          -7.8272   13.0249   -1.2815 C.3     1  UNL1        0.1593
     14 O          -7.3133   12.8455   -2.6327 O.3     1  UNL1       -0.2421
     15 P          -8.1661   13.4560   -3.9806 P.3     1  UNL1       -0.0004
     16 O          -8.1569   12.2692   -4.8717 O.co2   1  UNL1       -0.6646
     17 O          -9.4886   13.7983   -3.3981 O.co2   1  UNL1       -0.6646
     18 O          -7.4079   14.6570   -4.4459 O.co2   1  UNL1       -0.6646
     19 C          -6.8299   12.5342   -0.2391 C.3     1  UNL1        0.1329
     20 O          -6.2471   11.2729   -0.6358 O.3     1  UNL1       -0.3845
     21 C          -5.8452   13.7121   -0.3775 C.3     1  UNL1        0.1668
     22 N          -4.8315   13.8628    0.6907 N.ar    1  UNL1       -0.2855
     23 C          -3.4851   13.7348    0.4572 C.ar    1  UNL1        0.1004
     24 N          -2.7454   13.8893    1.5152 N.ar    1  UNL1       -0.2306
     25 C          -3.6716   14.1480    2.5757 C.ar    1  UNL1        0.1473
     26 C          -3.4823   14.4221    3.9973 C.ar    1  UNL1        0.1472
     27 N          -2.2732   14.3715    4.5894 N.pl3   1  UNL1       -0.3413
     28 N          -4.5957   14.6638    4.7382 N.ar    1  UNL1       -0.2188
     29 C          -5.7847   14.6122    4.1198 C.ar    1  UNL1        0.1205
     30 N          -6.1061   14.3617    2.8274 N.ar    1  UNL1       -0.2159
     31 C          -4.9699   14.1350    2.0776 C.ar    1  UNL1        0.1674
     32 H          -8.6537   15.0078    0.9928 H       1  UNL1        0.0631
     33 H          -9.7926   14.1431   -0.0788 H       1  UNL1        0.0631
     34 H          -7.9339   15.1287   -1.8647 H       1  UNL1        0.0650
     35 H          -8.8014   12.5520   -1.1575 H       1  UNL1        0.0694
     36 H          -7.2708   12.4852    0.7565 H       1  UNL1        0.0667
     37 H          -5.3732   13.7074   -1.3600 H       1  UNL1        0.0866
     38 H          -3.0758   13.5243   -0.5199 H       1  UNL1        0.1030
     39 H          -6.6315   14.8029    4.7624 H       1  UNL1        0.1048
     40 H          -1.6024   15.1100    4.4321 H       1  UNL1        0.1438
     41 H          -2.0374   13.5950    5.1905 H       1  UNL1        0.1438
     42 H          -5.3620   11.2003   -0.2714 H       1  UNL1        0.2101
@<TRIPOS>BOND
     1     1     2    1
     2     1     3    1
     3     1     4    1
     4     1     8    1
     5     5     6    1
     6     5     7    1
     7     5     8    1
     8     5     9    1
     9     9    10    1
    10    10    11    1
    11    11    12    1
    12    11    13    1
    13    12    21    1
    14    13    14    1
    15    13    19    1
    16    14    15    1
    17    15    16    1
    18    15    17    1
    19    15    18    1
    20    19    20    1
    21    19    21    1
    22    21    22    1
    23    22    23   ar
    24    22    31   ar
    25    23    24   ar
    26    24    25   ar
    27    25    26   ar
    28    25    31   ar
    29    26    27    1
    30    26    28   ar
    31    28    29   ar
    32    29    30   ar
    33    30    31   ar
    34    32    10    1
    35    33    10    1
    36    11    34    1
    37    13    35    1
    38    19    36    1
    39    21    37    1
    40    38    23    1
    41    39    29    1
    42    40    27    1
    43    41    27    1
    44    42    20    1
@<TRIPOS>SUBSTRUCTURE
     1 UNL1        1 TEMP              0 ****  ****    0 ROOT

########## Name:	7	2761.71  0.333835
@<TRIPOS>MOLECULE
af2_protein.mol27	
 42 44 1 0 0
SMALL
GASTEIGER


@<TRIPOS>ATOM
      1 P         -12.0328   18.3322    1.1642 P.3     1  UNL1        0.0544
      2 O         -13.4891   18.1324    1.3062 O.co2   1  UNL1       -0.6615
      3 O         -11.2561   18.2165    2.4450 O.co2   1  UNL1       -0.6615
      4 O         -11.6686   19.5237    0.3625 O.co2   1  UNL1       -0.6615
      5 P         -10.0174   16.2434   -0.0332 P.3     1  UNL1        0.2491
      6 O          -9.3665   16.1670    1.3083 O.co2   1  UNL1       -0.6337
      7 O          -9.2484   16.8336   -1.1622 O.co2   1  UNL1       -0.6337
      8 O         -11.5044   17.0480    0.2801 O.3     1  UNL1       -0.0930
      9 O         -10.4511   14.7255   -0.4312 O.3     1  UNL1       -0.2057
     10 C          -9.5265   13.6594   -0.3421 C.3     1  UNL1        0.1232
     11 C          -8.3608   14.0632   -1.1965 C.3     1  UNL1        0.1214
     12 O          -7.3439   14.4964   -0.2869 O.3     1  UNL1       -0.3453
     13 C          -7.7604   12.8833   -2.0085 C.3     1  UNL1        0.1593
     14 O          -7.2448   13.3820   -3.2764 O.3     1  UNL1       -0.2421
     15 P          -8.2901   14.0864   -4.4287 P.3     1  UNL1       -0.0004
     16 O          -7.8646   13.3721   -5.6580 O.co2   1  UNL1       -0.6646
     17 O          -9.6335   13.7154   -3.9156 O.co2   1  UNL1       -0.6646
     18 O          -8.0356   15.5583   -4.3794 O.co2   1  UNL1       -0.6646
     19 C          -6.6310   12.4408   -1.0860 C.3     1  UNL1        0.1329
     20 O          -5.6344   11.6894   -1.8140 O.3     1  UNL1       -0.3845
     21 C          -6.1505   13.8573   -0.7133 C.3     1  UNL1        0.1668
     22 N          -5.2408   13.9685    0.4491 N.ar    1  UNL1       -0.2855
     23 C          -3.9465   14.4113    0.3370 C.ar    1  UNL1        0.1004
     24 N          -3.2933   14.4333    1.4609 N.ar    1  UNL1       -0.2306
     25 C          -4.2274   13.9609    2.4374 C.ar    1  UNL1        0.1473
     26 C          -4.1223   13.7661    3.8806 C.ar    1  UNL1        0.1472
     27 N          -2.9669   13.9382    4.5519 N.pl3   1  UNL1       -0.3413
     28 N          -5.2310   13.3255    4.5315 N.ar    1  UNL1       -0.2188
     29 C          -6.3307   13.0809    3.8038 C.ar    1  UNL1        0.1205
     30 N          -6.5646   13.2046    2.4748 N.ar    1  UNL1       -0.2159
     31 C          -5.4404   13.6693    1.8230 C.ar    1  UNL1        0.1674
     32 H          -9.2093   13.5166    0.6910 H       1  UNL1        0.0631
     33 H          -9.9734   12.7428   -0.7269 H       1  UNL1        0.0631
     34 H          -8.6440   14.8772   -1.8639 H       1  UNL1        0.0650
     35 H          -8.4901   12.0876   -2.1581 H       1  UNL1        0.0694
     36 H          -7.0022   11.8942   -0.2192 H       1  UNL1        0.0667
     37 H          -5.7304   14.3637   -1.5823 H       1  UNL1        0.0866
     38 H          -3.5091   14.7151   -0.6026 H       1  UNL1        0.1030
     39 H          -7.1748   12.7241    4.3752 H       1  UNL1        0.1048
     40 H          -2.6175   14.8697    4.7254 H       1  UNL1        0.1438
     41 H          -2.4501   13.1355    4.8814 H       1  UNL1        0.1438
     42 H          -4.7770   11.8086   -1.3990 H       1  UNL1        0.2101
@<TRIPOS>BOND
     1     1     2    1
     2     1     3    1
     3     1     4    1
     4     1     8    1
     5     5     6    1
     6     5     7    1
     7     5     8    1
     8     5     9    1
     9     9    10    1
    10    10    11    1
    11    11    12    1
    12    11    13    1
    13    12    21    1
    14    13    14    1
    15    13    19    1
    16    14    15    1
    17    15    16    1
    18    15    17    1
    19    15    18    1
    20    19    20    1
    21    19    21    1
    22    21    22    1
    23    22    23   ar
    24    22    31   ar
    25    23    24   ar
    26    24    25   ar
    27    25    26   ar
    28    25    31   ar
    29    26    27    1
    30    26    28   ar
    31    28    29   ar
    32    29    30   ar
    33    30    31   ar
    34    32    10    1
    35    33    10    1
    36    11    34    1
    37    13    35    1
    38    19    36    1
    39    21    37    1
    40    38    23    1
    41    39    29    1
    42    40    27    1
    43    41    27    1
    44    42    20    1
@<TRIPOS>SUBSTRUCTURE
     1 UNL1        1 TEMP              0 ****  ****    0 ROOT

########## Name:	8	2530.78  0.34493
@<TRIPOS>MOLECULE
af2_protein.mol28	
 42 44 1 0 0
SMALL
GASTEIGER


@<TRIPOS>ATOM
      1 P          -6.2503    9.4161   -4.4643 P.3     1  UNL1        0.0544
      2 O          -6.0501    9.3948   -5.9274 O.co2   1  UNL1       -0.6615
      3 O          -5.0005    9.2071   -3.6573 O.co2   1  UNL1       -0.6615
      4 O          -7.3906    8.5891   -4.0053 O.co2   1  UNL1       -0.6615
      5 P          -6.7217   11.9902   -2.7292 P.3     1  UNL1        0.2491
      6 O          -5.4267   11.7108   -2.0407 O.co2   1  UNL1       -0.6337
      7 O          -7.9810   11.8788   -1.9443 O.co2   1  UNL1       -0.6337
      8 O          -6.6794   10.9652   -4.1092 O.3     1  UNL1       -0.0930
      9 O          -6.6141   13.4968   -3.3368 O.3     1  UNL1       -0.2057
     10 C          -6.1909   14.5770   -2.5285 C.3     1  UNL1        0.1232
     11 C          -7.1310   14.5990   -1.3591 C.3     1  UNL1        0.1214
     12 O          -6.4084   14.0178   -0.2686 O.3     1  UNL1       -0.3453
     13 C          -7.5251   16.0352   -0.9186 C.3     1  UNL1        0.1593
     14 O          -8.8865   16.0253   -0.4004 O.3     1  UNL1       -0.2421
     15 P         -10.2020   15.6089   -1.4068 P.3     1  UNL1       -0.0004
     16 O         -11.1399   16.7190   -1.1060 O.co2   1  UNL1       -0.6646
     17 O          -9.5956   15.6440   -2.7620 O.co2   1  UNL1       -0.6646
     18 O         -10.6250   14.2358   -0.9951 O.co2   1  UNL1       -0.6646
     19 C          -6.5112   16.2873    0.1908 C.3     1  UNL1        0.1329
     20 O          -6.9628   17.3382    1.0737 O.3     1  UNL1       -0.3845
     21 C          -6.6103   14.8896    0.8331 C.3     1  UNL1        0.1668
     22 N          -5.5452   14.5194    1.7922 N.ar    1  UNL1       -0.2855
     23 C          -5.7945   14.2841    3.1212 C.ar    1  UNL1        0.1004
     24 N          -4.7371   13.9812    3.8144 N.ar    1  UNL1       -0.2306
     25 C          -3.6597   14.0113    2.8724 C.ar    1  UNL1        0.1473
     26 C          -2.2299   13.7495    3.0098 C.ar    1  UNL1        0.1472
     27 N          -1.6501   13.5053    4.2011 N.pl3   1  UNL1       -0.3413
     28 N          -1.4710   13.8330    1.8854 N.ar    1  UNL1       -0.2188
     29 C          -2.0813   14.1696    0.7396 C.ar    1  UNL1        0.1205
     30 N          -3.3800   14.4476    0.4708 N.ar    1  UNL1       -0.2159
     31 C          -4.1474   14.3434    1.6131 C.ar    1  UNL1        0.1674
     32 H          -5.1667   14.4201   -2.1901 H       1  UNL1        0.0631
     33 H          -6.2628   15.5116   -3.0847 H       1  UNL1        0.0631
     34 H          -8.0228   14.0118   -1.5785 H       1  UNL1        0.0650
     35 H          -7.4122   16.7495   -1.7341 H       1  UNL1        0.0694
     36 H          -5.5149   16.4856   -0.2041 H       1  UNL1        0.0667
     37 H          -7.5960   14.7354    1.2722 H       1  UNL1        0.0866
     38 H          -6.7825   14.3450    3.5532 H       1  UNL1        0.1030
     39 H          -1.4248   14.2293   -0.1158 H       1  UNL1        0.1048
     40 H          -1.7831   12.6125    4.6542 H       1  UNL1        0.1438
     41 H          -1.0824   14.2152    4.6413 H       1  UNL1        0.1438
     42 H          -6.6087   17.1913    1.9538 H       1  UNL1        0.2101
@<TRIPOS>BOND
     1     1     2    1
     2     1     3    1
     3     1     4    1
     4     1     8    1
     5     5     6    1
     6     5     7    1
     7     5     8    1
     8     5     9    1
     9     9    10    1
    10    10    11    1
    11    11    12    1
    12    11    13    1
    13    12    21    1
    14    13    14    1
    15    13    19    1
    16    14    15    1
    17    15    16    1
    18    15    17    1
    19    15    18    1
    20    19    20    1
    21    19    21    1
    22    21    22    1
    23    22    23   ar
    24    22    31   ar
    25    23    24   ar
    26    24    25   ar
    27    25    26   ar
    28    25    31   ar
    29    26    27    1
    30    26    28   ar
    31    28    29   ar
    32    29    30   ar
    33    30    31   ar
    34    32    10    1
    35    33    10    1
    36    11    34    1
    37    13    35    1
    38    19    36    1
    39    21    37    1
    40    38    23    1
    41    39    29    1
    42    40    27    1
    43    41    27    1
    44    42    20    1
@<TRIPOS>SUBSTRUCTURE
     1 UNL1        1 TEMP              0 ****  ****    0 ROOT

########## Name:	9	2487.22  0.335466
@<TRIPOS>MOLECULE
af2_protein.mol29	
 42 44 1 0 0
SMALL
GASTEIGER


@<TRIPOS>ATOM
      1 P          -4.2475    9.2131   -4.1239 P.3     1  UNL1        0.0544
      2 O          -3.5428    9.2403   -5.4214 O.co2   1  UNL1       -0.6615
      3 O          -3.3525    9.0579   -2.9273 O.co2   1  UNL1       -0.6615
      4 O          -5.4210    8.3092   -4.1003 O.co2   1  UNL1       -0.6615
      5 P          -5.4645   11.7107   -2.6611 P.3     1  UNL1        0.2491
      6 O          -4.4810   11.4908   -1.5596 O.co2   1  UNL1       -0.6337
      7 O          -6.9099   11.5057   -2.3730 O.co2   1  UNL1       -0.6337
      8 O          -4.8723   10.7249   -3.9396 O.3     1  UNL1       -0.0930
      9 O          -5.2459   13.2358   -3.1874 O.3     1  UNL1       -0.2057
     10 C          -5.2053   14.3184   -2.2787 C.3     1  UNL1        0.1232
     11 C          -6.4970   14.2556   -1.5177 C.3     1  UNL1        0.1214
     12 O          -6.1704   13.6909   -0.2435 O.3     1  UNL1       -0.3453
     13 C          -7.1122   15.6547   -1.2413 C.3     1  UNL1        0.1593
     14 O          -8.5653   15.5517   -1.2385 O.3     1  UNL1       -0.2421
     15 P          -9.4113   15.0840   -2.6464 P.3     1  UNL1       -0.0004
     16 O         -10.4638   16.1291   -2.6941 O.co2   1  UNL1       -0.6646
     17 O          -8.3690   15.1888   -3.6993 O.co2   1  UNL1       -0.6646
     18 O          -9.8637   13.6785   -2.4147 O.co2   1  UNL1       -0.6646
     19 C          -6.5735   15.9381    0.1557 C.3     1  UNL1        0.1329
     20 O          -7.3739   16.9381    0.8245 O.3     1  UNL1       -0.3845
     21 C          -6.8035   14.5213    0.7178 C.3     1  UNL1        0.1668
     22 N          -6.1242   14.1905    1.9907 N.ar    1  UNL1       -0.2855
     23 C          -6.8110   13.9076    3.1448 C.ar    1  UNL1        0.1004
     24 N          -6.0494   13.6502    4.1666 N.ar    1  UNL1       -0.2306
     25 C          -4.7131   13.7672    3.6669 C.ar    1  UNL1        0.1473
     26 C          -3.4102   13.5866    4.3008 C.ar    1  UNL1        0.1472
     27 N          -3.2740   13.3472    5.6196 N.pl3   1  UNL1       -0.3413
     28 N          -2.3103   13.7429    3.5180 N.ar    1  UNL1       -0.2188
     29 C          -2.4969   14.0716    2.2312 C.ar    1  UNL1        0.1205
     30 N          -3.6321   14.2794    1.5210 N.ar    1  UNL1       -0.2159
     31 C          -4.7450   14.1016    2.3175 C.ar    1  UNL1        0.1674
     32 H          -4.3587   14.2136   -1.6001 H       1  UNL1        0.0631
     33 H          -5.1357   15.2608   -2.8219 H       1  UNL1        0.0631
     34 H          -7.2145   13.6227   -2.0400 H       1  UNL1        0.0650
     35 H          -6.7646   16.3946   -1.9622 H       1  UNL1        0.0694
     36 H          -5.5168   16.2045    0.1396 H       1  UNL1        0.0667
     37 H          -7.8687   14.2984    0.7791 H       1  UNL1        0.0866
     38 H          -7.8897   13.8995    3.1994 H       1  UNL1        0.1030
     39 H          -1.5860   14.1913    1.6637 H       1  UNL1        0.1048
     40 H          -3.5010   12.4370    5.9938 H       1  UNL1        0.1438
     41 H          -2.9449   14.0780    6.2341 H       1  UNL1        0.1438
     42 H          -7.3447   16.7902    1.7726 H       1  UNL1        0.2101
@<TRIPOS>BOND
     1     1     2    1
     2     1     3    1
     3     1     4    1
     4     1     8    1
     5     5     6    1
     6     5     7    1
     7     5     8    1
     8     5     9    1
     9     9    10    1
    10    10    11    1
    11    11    12    1
    12    11    13    1
    13    12    21    1
    14    13    14    1
    15    13    19    1
    16    14    15    1
    17    15    16    1
    18    15    17    1
    19    15    18    1
    20    19    20    1
    21    19    21    1
    22    21    22    1
    23    22    23   ar
    24    22    31   ar
    25    23    24   ar
    26    24    25   ar
    27    25    26   ar
    28    25    31   ar
    29    26    27    1
    30    26    28   ar
    31    28    29   ar
    32    29    30   ar
    33    30    31   ar
    34    32    10    1
    35    33    10    1
    36    11    34    1
    37    13    35    1
    38    19    36    1
    39    21    37    1
    40    38    23    1
    41    39    29    1
    42    40    27    1
    43    41    27    1
    44    42    20    1
@<TRIPOS>SUBSTRUCTURE
     1 UNL1        1 TEMP              0 ****  ****    0 ROOT

########## Name:	10	2292.17  0.290699
@<TRIPOS>MOLECULE
af2_protein.mol210	
 42 44 1 0 0
SMALL
GASTEIGER


@<TRIPOS>ATOM
      1 P         -12.0118   16.6430    1.3295 P.3     1  UNL1        0.0544
      2 O         -13.3251   15.9784    1.4502 O.co2   1  UNL1       -0.6615
      3 O         -11.1759   16.6113    2.5773 O.co2   1  UNL1       -0.6615
      4 O         -12.0758   17.9825    0.6998 O.co2   1  UNL1       -0.6615
      5 P          -9.5083   15.4697   -0.1586 P.3     1  UNL1        0.2491
      6 O          -8.8009   15.4274    1.1556 O.co2   1  UNL1       -0.6337
      7 O          -9.0172   16.4141   -1.1984 O.co2   1  UNL1       -0.6337
      8 O         -11.1545   15.7174    0.2721 O.3     1  UNL1       -0.0930
      9 O          -9.4676   13.9582   -0.7619 O.3     1  UNL1       -0.2057
     10 C          -8.2542   13.2352   -0.8274 C.3     1  UNL1        0.1232
     11 C          -7.3152   14.0932   -1.6235 C.3     1  UNL1        0.1214
     12 O          -6.4400   14.7016   -0.6680 O.3     1  UNL1       -0.3453
     13 C          -6.4183   13.2789   -2.5954 C.3     1  UNL1        0.1593
     14 O          -6.1462   14.0757   -3.7842 O.3     1  UNL1       -0.2421
     15 P          -7.4138   14.5596   -4.8213 P.3     1  UNL1       -0.0004
     16 O          -6.8481   14.1826   -6.1405 O.co2   1  UNL1       -0.6646
     17 O          -8.5485   13.7211   -4.3576 O.co2   1  UNL1       -0.6646
     18 O          -7.6273   16.0171   -4.5686 O.co2   1  UNL1       -0.6646
     19 C          -5.1635   13.0977   -1.7499 C.3     1  UNL1        0.1329
     20 O          -4.0197   12.7999   -2.5810 O.3     1  UNL1       -0.3845
     21 C          -5.1294   14.5319   -1.1859 C.3     1  UNL1        0.1668
     22 N          -4.2435   14.7708   -0.0244 N.ar    1  UNL1       -0.2855
     23 C          -3.1582   15.6090   -0.0808 C.ar    1  UNL1        0.1004
     24 N          -2.4899   15.6883    1.0316 N.ar    1  UNL1       -0.2306
     25 C          -3.1818   14.8227    1.9378 C.ar    1  UNL1        0.1473
     26 C          -2.9507   14.4841    3.3392 C.ar    1  UNL1        0.1472
     27 N          -1.8746   14.9217    4.0215 N.pl3   1  UNL1       -0.3413
     28 N          -3.8342   13.6359    3.9284 N.ar    1  UNL1       -0.2188
     29 C          -4.8377   13.1551    3.1797 C.ar    1  UNL1        0.1205
     30 N          -5.1633   13.3715    1.8822 N.ar    1  UNL1       -0.2159
     31 C          -4.2726   14.2472    1.2954 C.ar    1  UNL1        0.1674
     32 H          -7.8581   13.0657    0.1739 H       1  UNL1        0.0631
     33 H          -8.4124   12.2831   -1.3338 H       1  UNL1        0.0631
     34 H          -7.8697   14.8566   -2.1694 H       1  UNL1        0.0650
     35 H          -6.8710   12.3208   -2.8506 H       1  UNL1        0.0694
     36 H          -5.3035   12.3537   -0.9658 H       1  UNL1        0.0667
     37 H          -4.9307   15.2537   -1.9781 H       1  UNL1        0.0866
     38 H          -2.8835   16.1550   -0.9712 H       1  UNL1        0.1030
     39 H          -5.4999   12.4794    3.7004 H       1  UNL1        0.1048
     40 H          -1.8239   15.8848    4.3214 H       1  UNL1        0.1438
     41 H          -1.1183   14.2866    4.2331 H       1  UNL1        0.1438
     42 H          -3.2225   13.1276   -2.1582 H       1  UNL1        0.2101
@<TRIPOS>BOND
     1     1     2    1
     2     1     3    1
     3     1     4    1
     4     1     8    1
     5     5     6    1
     6     5     7    1
     7     5     8    1
     8     5     9    1
     9     9    10    1
    10    10    11    1
    11    11    12    1
    12    11    13    1
    13    12    21    1
    14    13    14    1
    15    13    19    1
    16    14    15    1
    17    15    16    1
    18    15    17    1
    19    15    18    1
    20    19    20    1
    21    19    21    1
    22    21    22    1
    23    22    23   ar
    24    22    31   ar
    25    23    24   ar
    26    24    25   ar
    27    25    26   ar
    28    25    31   ar
    29    26    27    1
    30    26    28   ar
    31    28    29   ar
    32    29    30   ar
    33    30    31   ar
    34    32    10    1
    35    33    10    1
    36    11    34    1
    37    13    35    1
    38    19    36    1
    39    21    37    1
    40    38    23    1
    41    39    29    1
    42    40    27    1
    43    41    27    1
    44    42    20    1
@<TRIPOS>SUBSTRUCTURE
     1 UNL1        1 TEMP              0 ****  ****    0 ROOT

########## Name:	11	2783.29  0.305372
@<TRIPOS>MOLECULE
af2_protein.mol211	
 42 44 1 0 0
SMALL
GASTEIGER


@<TRIPOS>ATOM
      1 P         -10.8995   19.8202    1.2530 P.3     1  UNL1        0.0544
      2 O         -12.3420   19.9205    1.5534 O.co2   1  UNL1       -0.6615
      3 O         -10.0185   19.6491    2.4578 O.co2   1  UNL1       -0.6615
      4 O         -10.4120   20.8550    0.3116 O.co2   1  UNL1       -0.6615
      5 P          -9.4587   17.2947    0.0676 P.3     1  UNL1        0.2491
      6 O          -8.6862   17.1912    1.3410 O.co2   1  UNL1       -0.6337
      7 O          -8.7255   17.6383   -1.1809 O.co2   1  UNL1       -0.6337
      8 O         -10.7239   18.3959    0.4464 O.3     1  UNL1       -0.0930
      9 O         -10.2107   15.8661   -0.1422 O.3     1  UNL1       -0.2057
     10 C          -9.4977   14.6491   -0.0433 C.3     1  UNL1        0.1232
     11 C          -8.3813   14.7529   -1.0406 C.3     1  UNL1        0.1214
     12 O          -7.2051   15.0441   -0.2784 O.3     1  UNL1       -0.3453
     13 C          -8.1077   13.4217   -1.7926 C.3     1  UNL1        0.1593
     14 O          -7.6546   13.7152   -3.1456 O.3     1  UNL1       -0.2421
     15 P          -8.6732   14.5240   -4.2524 P.3     1  UNL1       -0.0004
     16 O          -8.5304   13.6518   -5.4446 O.co2   1  UNL1       -0.6646
     17 O          -9.9955   14.4621   -3.5791 O.co2   1  UNL1       -0.6646
     18 O          -8.1440   15.9171   -4.3663 O.co2   1  UNL1       -0.6646
     19 C          -6.9840   12.8356   -0.9463 C.3     1  UNL1        0.1329
     20 O          -6.2343   11.8520   -1.6934 O.3     1  UNL1       -0.3845
     21 C          -6.2082   14.1540   -0.7564 C.3     1  UNL1        0.1668
     22 N          -5.1683   14.1700    0.2969 N.ar    1  UNL1       -0.2855
     23 C          -3.8352   14.3413    0.0190 C.ar    1  UNL1        0.1004
     24 N          -3.0667   14.3175    1.0673 N.ar    1  UNL1       -0.2306
     25 C          -3.9561   14.1103    2.1697 C.ar    1  UNL1        0.1473
     26 C          -3.7269   14.0053    3.6079 C.ar    1  UNL1        0.1472
     27 N          -2.4914   13.9967    4.1450 N.pl3   1  UNL1       -0.3413
     28 N          -4.8176   13.8395    4.4015 N.ar    1  UNL1       -0.2188
     29 C          -6.0187   13.7623    3.8098 C.ar    1  UNL1        0.1205
     30 N          -6.3741   13.8313    2.5039 N.ar    1  UNL1       -0.2159
     31 C          -5.2638   14.0176    1.7057 C.ar    1  UNL1        0.1674
     32 H          -9.0981   14.5233    0.9630 H       1  UNL1        0.0631
     33 H         -10.1487   13.8121   -0.2953 H       1  UNL1        0.0631
     34 H          -8.5808   15.5552   -1.7510 H       1  UNL1        0.0650
     35 H          -8.9855   12.7756   -1.7955 H       1  UNL1        0.0694
     36 H          -7.3506   12.4375   -0.0001 H       1  UNL1        0.0667
     37 H          -5.8018   14.5030   -1.7057 H       1  UNL1        0.0866
     38 H          -3.4577   14.4836   -0.9829 H       1  UNL1        0.1030
     39 H          -6.8445   13.6207    4.4911 H       1  UNL1        0.1048
     40 H          -1.9566   14.8519    4.1957 H       1  UNL1        0.1438
     41 H          -2.0998   13.1347    4.4970 H       1  UNL1        0.1438
     42 H          -5.3284   11.8312   -1.3765 H       1  UNL1        0.2101
@<TRIPOS>BOND
     1     1     2    1
     2     1     3    1
     3     1     4    1
     4     1     8    1
     5     5     6    1
     6     5     7    1
     7     5     8    1
     8     5     9    1
     9     9    10    1
    10    10    11    1
    11    11    12    1
    12    11    13    1
    13    12    21    1
    14    13    14    1
    15    13    19    1
    16    14    15    1
    17    15    16    1
    18    15    17    1
    19    15    18    1
    20    19    20    1
    21    19    21    1
    22    21    22    1
    23    22    23   ar
    24    22    31   ar
    25    23    24   ar
    26    24    25   ar
    27    25    26   ar
    28    25    31   ar
    29    26    27    1
    30    26    28   ar
    31    28    29   ar
    32    29    30   ar
    33    30    31   ar
    34    32    10    1
    35    33    10    1
    36    11    34    1
    37    13    35    1
    38    19    36    1
    39    21    37    1
    40    38    23    1
    41    39    29    1
    42    40    27    1
    43    41    27    1
    44    42    20    1
@<TRIPOS>SUBSTRUCTURE
     1 UNL1        1 TEMP              0 ****  ****    0 ROOT

########## Name:	12	2870.83  0.350898
@<TRIPOS>MOLECULE
af2_protein.mol212	
 42 44 1 0 0
SMALL
GASTEIGER


@<TRIPOS>ATOM
      1 P         -12.0024   17.3578    2.3466 P.3     1  UNL1        0.0544
      2 O         -13.3666   16.7950    2.2890 O.co2   1  UNL1       -0.6615
      3 O         -11.1568   16.8381    3.4743 O.co2   1  UNL1       -0.6615
      4 O         -11.9584   18.8325    2.2112 O.co2   1  UNL1       -0.6615
      5 P          -9.6283   16.5735    0.4473 P.3     1  UNL1        0.2491
      6 O          -8.9109   16.0312    1.6391 O.co2   1  UNL1       -0.6337
      7 O          -9.0706   17.7752   -0.2303 O.co2   1  UNL1       -0.6337
      8 O         -11.2415   16.7853    1.0038 O.3     1  UNL1       -0.0930
      9 O          -9.7259   15.3600   -0.6336 O.3     1  UNL1       -0.2057
     10 C          -8.5804   14.6116   -0.9901 C.3     1  UNL1        0.1232
     11 C          -7.5808   15.6148   -1.4863 C.3     1  UNL1        0.1214
     12 O          -6.6445   15.7915   -0.4181 O.3     1  UNL1       -0.3453
     13 C          -6.7698   15.1144   -2.7127 C.3     1  UNL1        0.1593
     14 O          -6.4447   16.2454   -3.5713 O.3     1  UNL1       -0.2421
     15 P          -7.6787   17.1501   -4.3300 P.3     1  UNL1       -0.0004
     16 O          -7.1643   17.2033   -5.7211 O.co2   1  UNL1       -0.6646
     17 O          -8.8757   16.2936   -4.1316 O.co2   1  UNL1       -0.6646
     18 O          -7.7624   18.4458   -3.5898 O.co2   1  UNL1       -0.6646
     19 C          -5.5249   14.5597   -2.0310 C.3     1  UNL1        0.1329
     20 O          -4.4215   14.4761   -2.9602 O.3     1  UNL1       -0.3845
     21 C          -5.3600   15.7084   -1.0164 C.3     1  UNL1        0.1668
     22 N          -4.4424   15.4679    0.1199 N.ar    1  UNL1       -0.2855
     23 C          -3.2895   16.1889    0.3063 C.ar    1  UNL1        0.1004
     24 N          -2.6030   15.8324    1.3512 N.ar    1  UNL1       -0.2306
     25 C          -3.3556   14.7655    1.9382 C.ar    1  UNL1        0.1473
     26 C          -3.1372   13.9525    3.1311 C.ar    1  UNL1        0.1472
     27 N          -2.0189   14.0469    3.8765 N.pl3   1  UNL1       -0.3413
     28 N          -4.0832   13.0249    3.4339 N.ar    1  UNL1       -0.2188
     29 C          -5.1337   12.9070    2.6086 C.ar    1  UNL1        0.1205
     30 N          -5.4557   13.5773    1.4757 N.ar    1  UNL1       -0.2159
     31 C          -4.5001   14.5294    1.1843 C.ar    1  UNL1        0.1674
     32 H          -8.1879   14.0809   -0.1227 H       1  UNL1        0.0631
     33 H          -8.8266   13.9046   -1.7822 H       1  UNL1        0.0631
     34 H          -8.0741   16.5589   -1.7179 H       1  UNL1        0.0650
     35 H          -7.3067   14.3386   -3.2585 H       1  UNL1        0.0694
     36 H          -5.7188   13.6060   -1.5403 H       1  UNL1        0.0667
     37 H          -5.1096   16.6396   -1.5246 H       1  UNL1        0.0866
     38 H          -2.9798   16.9830   -0.3570 H       1  UNL1        0.1030
     39 H          -5.8453   12.1473    2.8963 H       1  UNL1        0.1048
     40 H          -1.8815   14.8431    4.4826 H       1  UNL1        0.1438
     41 H          -1.3177   13.3216    3.8290 H       1  UNL1        0.1438
     42 H          -3.5938   14.5776   -2.4845 H       1  UNL1        0.2101
@<TRIPOS>BOND
     1     1     2    1
     2     1     3    1
     3     1     4    1
     4     1     8    1
     5     5     6    1
     6     5     7    1
     7     5     8    1
     8     5     9    1
     9     9    10    1
    10    10    11    1
    11    11    12    1
    12    11    13    1
    13    12    21    1
    14    13    14    1
    15    13    19    1
    16    14    15    1
    17    15    16    1
    18    15    17    1
    19    15    18    1
    20    19    20    1
    21    19    21    1
    22    21    22    1
    23    22    23   ar
    24    22    31   ar
    25    23    24   ar
    26    24    25   ar
    27    25    26   ar
    28    25    31   ar
    29    26    27    1
    30    26    28   ar
    31    28    29   ar
    32    29    30   ar
    33    30    31   ar
    34    32    10    1
    35    33    10    1
    36    11    34    1
    37    13    35    1
    38    19    36    1
    39    21    37    1
    40    38    23    1
    41    39    29    1
    42    40    27    1
    43    41    27    1
    44    42    20    1
@<TRIPOS>SUBSTRUCTURE
     1 UNL1        1 TEMP              0 ****  ****    0 ROOT

########## Name:	13	2464.61  0.343978
@<TRIPOS>MOLECULE
af2_protein.mol213	
 42 44 1 0 0
SMALL
GASTEIGER


@<TRIPOS>ATOM
      1 P          -2.3325   11.2299   -5.1172 P.3     1  UNL1        0.0544
      2 O          -1.9325   11.8190   -6.4110 O.co2   1  UNL1       -0.6615
      3 O          -1.3083   11.3593   -4.0258 O.co2   1  UNL1       -0.6615
      4 O          -2.8991    9.8658   -5.2316 O.co2   1  UNL1       -0.6615
      5 P          -4.3778   12.4928   -3.0972 P.3     1  UNL1        0.2491
      6 O          -3.2601   12.6276   -2.1166 O.co2   1  UNL1       -0.6337
      7 O          -5.4792   11.5402   -2.7908 O.co2   1  UNL1       -0.6337
      8 O          -3.5787   12.1638   -4.5838 O.3     1  UNL1       -0.0930
      9 O          -5.0104   13.9798   -3.2946 O.3     1  UNL1       -0.2057
     10 C          -5.3671   14.7709   -2.1782 C.3     1  UNL1        0.1232
     11 C          -6.3350   13.9406   -1.3874 C.3     1  UNL1        0.1214
     12 O          -5.5891   13.4228   -0.2808 O.3     1  UNL1       -0.3453
     13 C          -7.5043   14.7692   -0.7889 C.3     1  UNL1        0.1593
     14 O          -8.7045   13.9451   -0.7387 O.3     1  UNL1       -0.2421
     15 P          -9.4148   13.3469   -2.1720 P.3     1  UNL1       -0.0004
     16 O         -10.8366   13.7062   -1.9444 O.co2   1  UNL1       -0.6646
     17 O          -8.7255   14.1333   -3.2266 O.co2   1  UNL1       -0.6646
     18 O          -9.0855   11.8900   -2.2252 O.co2   1  UNL1       -0.6646
     19 C          -6.9705   15.0573    0.6091 C.3     1  UNL1        0.1329
     20 O          -8.0465   15.3909    1.5139 O.3     1  UNL1       -0.3845
     21 C          -6.3950   13.6504    0.8651 C.3     1  UNL1        0.1668
     22 N          -5.4597   13.5096    2.0037 N.ar    1  UNL1       -0.2855
     23 C          -5.7411   12.7362    3.1021 C.ar    1  UNL1        0.1004
     24 N          -4.8081   12.7397    4.0074 N.ar    1  UNL1       -0.2306
     25 C          -3.7893   13.5965    3.4811 C.ar    1  UNL1        0.1473
     26 C          -2.4855   14.0018    3.9985 C.ar    1  UNL1        0.1472
     27 N          -2.0552   13.6558    5.2274 N.pl3   1  UNL1       -0.3413
     28 N          -1.7314   14.8176    3.2157 N.ar    1  UNL1       -0.2188
     29 C          -2.2438   15.2086    2.0395 C.ar    1  UNL1        0.1205
     30 N          -3.4279   14.9236    1.4453 N.ar    1  UNL1       -0.2159
     31 C          -4.1806   14.0807    2.2376 C.ar    1  UNL1        0.1674
     32 H          -4.4863   15.0020   -1.5791 H       1  UNL1        0.0631
     33 H          -5.8468   15.6918   -2.5098 H       1  UNL1        0.0631
     34 H          -6.7223   13.1251   -1.9982 H       1  UNL1        0.0650
     35 H          -7.6727   15.6881   -1.3504 H       1  UNL1        0.0694
     36 H          -6.1930   15.8212    0.5998 H       1  UNL1        0.0667
     37 H          -7.1942   12.9119    0.9282 H       1  UNL1        0.0866
     38 H          -6.6575   12.1738    3.2051 H       1  UNL1        0.1030
     39 H          -1.6026   15.8630    1.4679 H       1  UNL1        0.1048
     40 H          -1.7518   12.7096    5.4086 H       1  UNL1        0.1438
     41 H          -2.0361   14.3426    5.9677 H       1  UNL1        0.1438
     42 H          -7.8082   15.1279    2.4059 H       1  UNL1        0.2101
@<TRIPOS>BOND
     1     1     2    1
     2     1     3    1
     3     1     4    1
     4     1     8    1
     5     5     6    1
     6     5     7    1
     7     5     8    1
     8     5     9    1
     9     9    10    1
    10    10    11    1
    11    11    12    1
    12    11    13    1
    13    12    21    1
    14    13    14    1
    15    13    19    1
    16    14    15    1
    17    15    16    1
    18    15    17    1
    19    15    18    1
    20    19    20    1
    21    19    21    1
    22    21    22    1
    23    22    23   ar
    24    22    31   ar
    25    23    24   ar
    26    24    25   ar
    27    25    26   ar
    28    25    31   ar
    29    26    27    1
    30    26    28   ar
    31    28    29   ar
    32    29    30   ar
    33    30    31   ar
    34    32    10    1
    35    33    10    1
    36    11    34    1
    37    13    35    1
    38    19    36    1
    39    21    37    1
    40    38    23    1
    41    39    29    1
    42    40    27    1
    43    41    27    1
    44    42    20    1
@<TRIPOS>SUBSTRUCTURE
     1 UNL1        1 TEMP              0 ****  ****    0 ROOT

########## Name:	14	2858.94  0.300883
@<TRIPOS>MOLECULE
af2_protein.mol214	
 42 44 1 0 0
SMALL
GASTEIGER


@<TRIPOS>ATOM
      1 P          -7.0654   13.2424   -5.8309 P.3     1  UNL1        0.0544
      2 O          -7.6133   12.1288   -6.6314 O.co2   1  UNL1       -0.6615
      3 O          -8.0551   13.9007   -4.9122 O.co2   1  UNL1       -0.6615
      4 O          -6.2647   14.2076   -6.6197 O.co2   1  UNL1       -0.6615
      5 P          -5.2109   12.9357   -3.3159 P.3     1  UNL1        0.2491
      6 O          -6.2976   13.5461   -2.4938 O.co2   1  UNL1       -0.6337
      7 O          -3.9440   13.6958   -3.4938 O.co2   1  UNL1       -0.6337
      8 O          -5.9911   12.5442   -4.7974 O.3     1  UNL1       -0.0930
      9 O          -4.8672   11.4939   -2.6426 O.3     1  UNL1       -0.2057
     10 C          -4.6195   11.3813   -1.2550 C.3     1  UNL1        0.1232
     11 C          -3.4882   12.3246   -0.9687 C.3     1  UNL1        0.1214
     12 O          -4.0862   13.4767   -0.3652 O.3     1  UNL1       -0.3453
     13 C          -2.4679   11.7617    0.0580 C.3     1  UNL1        0.1593
     14 O          -1.1368   12.2607   -0.2601 O.3     1  UNL1       -0.2421
     15 P          -0.3829   11.8590   -1.7389 P.3     1  UNL1       -0.0004
     16 O           0.9572   11.4395   -1.2587 O.co2   1  UNL1       -0.6646
     17 O          -1.2421   10.7616   -2.2518 O.co2   1  UNL1       -0.6646
     18 O          -0.4433   13.0886   -2.5864 O.co2   1  UNL1       -0.6646
     19 C          -2.9933   12.3695    1.3529 C.3     1  UNL1        0.1329
     20 O          -1.9634   12.3959    2.3659 O.3     1  UNL1       -0.3845
     21 C          -3.2934   13.7670    0.7757 C.3     1  UNL1        0.1668
     22 N          -4.1449   14.6583    1.5954 N.ar    1  UNL1       -0.2855
     23 C          -3.6871   15.8390    2.1245 C.ar    1  UNL1        0.1004
     24 N          -4.5712   16.4852    2.8253 N.ar    1  UNL1       -0.2306
     25 C          -5.7476   15.6713    2.7724 C.ar    1  UNL1        0.1473
     26 C          -7.0834   15.8412    3.3369 C.ar    1  UNL1        0.1472
     27 N          -7.3979   16.8630    4.1568 N.pl3   1  UNL1       -0.3413
     28 N          -8.0016   14.8772    3.0641 N.ar    1  UNL1       -0.2188
     29 C          -7.6126   13.8326    2.3182 C.ar    1  UNL1        0.1205
     30 N          -6.4192   13.5428    1.7455 N.ar    1  UNL1       -0.2159
     31 C          -5.4970   14.5344    2.0117 C.ar    1  UNL1        0.1674
     32 H          -5.5050   11.6658   -0.6865 H       1  UNL1        0.0631
     33 H          -4.3278   10.3605   -1.0083 H       1  UNL1        0.0631
     34 H          -2.9818   12.6010   -1.8935 H       1  UNL1        0.0650
     35 H          -2.4903   10.6724    0.0891 H       1  UNL1        0.0694
     36 H          -3.8966   11.8691    1.7017 H       1  UNL1        0.0667
     37 H          -2.3714   14.2718    0.4872 H       1  UNL1        0.0866
     38 H          -2.6806   16.1998    1.9720 H       1  UNL1        0.1030
     39 H          -8.3829   13.0959    2.1443 H       1  UNL1        0.1048
     40 H          -7.5172   17.7932    3.7819 H       1  UNL1        0.1438
     41 H          -7.5144   16.6988    5.1465 H       1  UNL1        0.1438
     42 H          -2.1168   13.1345    2.9596 H       1  UNL1        0.2101
@<TRIPOS>BOND
     1     1     2    1
     2     1     3    1
     3     1     4    1
     4     1     8    1
     5     5     6    1
     6     5     7    1
     7     5     8    1
     8     5     9    1
     9     9    10    1
    10    10    11    1
    11    11    12    1
    12    11    13    1
    13    12    21    1
    14    13    14    1
    15    13    19    1
    16    14    15    1
    17    15    16    1
    18    15    17    1
    19    15    18    1
    20    19    20    1
    21    19    21    1
    22    21    22    1
    23    22    23   ar
    24    22    31   ar
    25    23    24   ar
    26    24    25   ar
    27    25    26   ar
    28    25    31   ar
    29    26    27    1
    30    26    28   ar
    31    28    29   ar
    32    29    30   ar
    33    30    31   ar
    34    32    10    1
    35    33    10    1
    36    11    34    1
    37    13    35    1
    38    19    36    1
    39    21    37    1
    40    38    23    1
    41    39    29    1
    42    40    27    1
    43    41    27    1
    44    42    20    1
@<TRIPOS>SUBSTRUCTURE
     1 UNL1        1 TEMP              0 ****  ****    0 ROOT

########## Name:	15	2756.91  0.298041
@<TRIPOS>MOLECULE
af2_protein.mol215	
 42 44 1 0 0
SMALL
GASTEIGER


@<TRIPOS>ATOM
      1 P          -9.3486   11.4483   -4.7471 P.3     1  UNL1        0.0544
      2 O         -10.4078   11.8591   -5.6907 O.co2   1  UNL1       -0.6615
      3 O          -7.9484   11.7192   -5.2194 O.co2   1  UNL1       -0.6615
      4 O          -9.5304   10.0825   -4.2027 O.co2   1  UNL1       -0.6615
      5 P          -8.5617   12.9736   -2.1178 P.3     1  UNL1        0.2491
      6 O          -7.2216   13.2349   -2.7218 O.co2   1  UNL1       -0.6337
      7 O          -8.6438   12.0729   -0.9361 O.co2   1  UNL1       -0.6337
      8 O          -9.5139   12.4479   -3.4497 O.3     1  UNL1       -0.0930
      9 O          -9.1860   14.4227   -1.7169 O.3     1  UNL1       -0.2057
     10 C          -8.4320   15.3562   -0.9690 C.3     1  UNL1        0.1232
     11 C          -8.0373   14.6408    0.2896 C.3     1  UNL1        0.1214
     12 O          -6.6652   14.2728    0.1136 O.3     1  UNL1       -0.3453
     13 C          -8.0989   15.5445    1.5513 C.3     1  UNL1        0.1593
     14 O          -8.4681   14.7373    2.7064 O.3     1  UNL1       -0.2421
     15 P          -9.9848   13.9555    2.7778 P.3     1  UNL1       -0.0004
     16 O         -10.4307   14.3454    4.1386 O.co2   1  UNL1       -0.6646
     17 O         -10.7296   14.5930    1.6622 O.co2   1  UNL1       -0.6646
     18 O          -9.7182   12.5037    2.5435 O.co2   1  UNL1       -0.6646
     19 C          -6.6522   16.0146    1.6427 C.3     1  UNL1        0.1329
     20 O          -6.3404   16.4682    2.9786 O.3     1  UNL1       -0.3845
     21 C          -6.0093   14.6529    1.3135 C.3     1  UNL1        0.1668
     22 N          -4.5725   14.6624    0.9575 N.ar    1  UNL1       -0.2855
     23 C          -3.6159   14.0426    1.7221 C.ar    1  UNL1        0.1004
     24 N          -2.4064   14.1642    1.2611 N.ar    1  UNL1       -0.2306
     25 C          -2.5454   14.9410    0.0667 C.ar    1  UNL1        0.1473
     26 C          -1.5732   15.4083   -0.9174 C.ar    1  UNL1        0.1472
     27 N          -0.2467   15.2277   -0.7664 N.pl3   1  UNL1       -0.3413
     28 N          -2.0503   16.1109   -1.9784 N.ar    1  UNL1       -0.2188
     29 C          -3.3699   16.3432   -2.0355 C.ar    1  UNL1        0.1205
     30 N          -4.3742   15.9846   -1.1992 N.ar    1  UNL1       -0.2159
     31 C          -3.8849   15.2565   -0.1339 C.ar    1  UNL1        0.1674
     32 H          -7.5464   15.6627   -1.5258 H       1  UNL1        0.0631
     33 H          -9.0438   16.2259   -0.7297 H       1  UNL1        0.0631
     34 H          -8.6530   13.7522    0.4296 H       1  UNL1        0.0650
     35 H          -8.7837   16.3809    1.4119 H       1  UNL1        0.0694
     36 H          -6.4196   16.7685    0.8907 H       1  UNL1        0.0667
     37 H          -6.2059   13.9312    2.1065 H       1  UNL1        0.0866
     38 H          -3.8477   13.5012    2.6275 H       1  UNL1        0.1030
     39 H          -3.6866   16.9142   -2.8957 H       1  UNL1        0.1048
     40 H           0.1580   14.3133   -0.9083 H       1  UNL1        0.1438
     41 H           0.3431   16.0068   -0.5111 H       1  UNL1        0.1438
     42 H          -5.4077   16.3255    3.1558 H       1  UNL1        0.2101
@<TRIPOS>BOND
     1     1     2    1
     2     1     3    1
     3     1     4    1
     4     1     8    1
     5     5     6    1
     6     5     7    1
     7     5     8    1
     8     5     9    1
     9     9    10    1
    10    10    11    1
    11    11    12    1
    12    11    13    1
    13    12    21    1
    14    13    14    1
    15    13    19    1
    16    14    15    1
    17    15    16    1
    18    15    17    1
    19    15    18    1
    20    19    20    1
    21    19    21    1
    22    21    22    1
    23    22    23   ar
    24    22    31   ar
    25    23    24   ar
    26    24    25   ar
    27    25    26   ar
    28    25    31   ar
    29    26    27    1
    30    26    28   ar
    31    28    29   ar
    32    29    30   ar
    33    30    31   ar
    34    32    10    1
    35    33    10    1
    36    11    34    1
    37    13    35    1
    38    19    36    1
    39    21    37    1
    40    38    23    1
    41    39    29    1
    42    40    27    1
    43    41    27    1
    44    42    20    1
@<TRIPOS>SUBSTRUCTURE
     1 UNL1        1 TEMP              0 ****  ****    0 ROOT

########## Name:	16	2699.16  0.314485
@<TRIPOS>MOLECULE
af2_protein.mol216	
 42 44 1 0 0
SMALL
GASTEIGER


@<TRIPOS>ATOM
      1 P          -7.8155   20.4596    1.8789 P.3     1  UNL1        0.0544
      2 O          -8.9765   20.7826    2.7326 O.co2   1  UNL1       -0.6615
      3 O          -6.5346   20.2205    2.6265 O.co2   1  UNL1       -0.6615
      4 O          -7.6571   21.3663    0.7180 O.co2   1  UNL1       -0.6615
      5 P          -7.2995   17.6978    0.4771 P.3     1  UNL1        0.2491
      6 O          -6.0798   17.5445    1.3244 O.co2   1  UNL1       -0.6337
      7 O          -7.1264   17.8710   -0.9907 O.co2   1  UNL1       -0.6337
      8 O          -8.1561   18.9879    1.2247 O.3     1  UNL1       -0.0930
      9 O          -8.2244   16.3851    0.7447 O.3     1  UNL1       -0.2057
     10 C          -7.6770   15.0836    0.6685 C.3     1  UNL1        0.1232
     11 C          -7.0799   14.9762   -0.7040 C.3     1  UNL1        0.1214
     12 O          -5.6679   15.1299   -0.5266 O.3     1  UNL1       -0.3453
     13 C          -7.2988   13.5849   -1.3586 C.3     1  UNL1        0.1593
     14 O          -7.4275   13.7442   -2.8008 O.3     1  UNL1       -0.2421
     15 P          -8.7198   14.6382   -3.4698 P.3     1  UNL1       -0.0004
     16 O          -9.1904   13.6983   -4.5174 O.co2   1  UNL1       -0.6646
     17 O          -9.6338   14.8013   -2.3107 O.co2   1  UNL1       -0.6646
     18 O          -8.1356   15.9327   -3.9355 O.co2   1  UNL1       -0.6646
     19 C          -5.9967   12.8833   -0.9920 C.3     1  UNL1        0.1329
     20 O          -5.7461   11.7666   -1.8740 O.3     1  UNL1       -0.3845
     21 C          -5.0710   14.0827   -1.2760 C.3     1  UNL1        0.1668
     22 N          -3.6898   13.9982   -0.7503 N.ar    1  UNL1       -0.2855
     23 C          -2.5875   13.9606   -1.5671 C.ar    1  UNL1        0.1004
     24 N          -1.4571   13.8758   -0.9304 N.ar    1  UNL1       -0.2306
     25 C          -1.8172   13.8531    0.4549 C.ar    1  UNL1        0.1473
     26 C          -1.0174   13.7852    1.6746 C.ar    1  UNL1        0.1472
     27 N           0.3199   13.6231    1.6550 N.pl3   1  UNL1       -0.3413
     28 N          -1.6840   13.8177    2.8585 N.ar    1  UNL1       -0.2188
     29 C          -3.0228   13.8874    2.8236 C.ar    1  UNL1        0.1205
     30 N          -3.8845   13.9445    1.7792 N.ar    1  UNL1       -0.2159
     31 C          -3.2000   13.9290    0.5810 C.ar    1  UNL1        0.1674
     32 H          -6.9079   14.9496    1.4293 H       1  UNL1        0.0631
     33 H          -8.4627   14.3388    0.7948 H       1  UNL1        0.0631
     34 H          -7.4688   15.7640   -1.3493 H       1  UNL1        0.0650
     35 H          -8.1625   13.0737   -0.9336 H       1  UNL1        0.0694
     36 H          -5.9730   12.5885    0.0571 H       1  UNL1        0.0667
     37 H          -5.0655   14.3230   -2.3392 H       1  UNL1        0.0866
     38 H          -2.6533   13.9983   -2.6445 H       1  UNL1        0.1030
     39 H          -3.4954   13.9000    3.7946 H       1  UNL1        0.1048
     40 H           0.9183   14.3931    1.3922 H       1  UNL1        0.1438
     41 H           0.7241   12.7314    1.9030 H       1  UNL1        0.1438
     42 H          -4.7995   11.6297   -1.9566 H       1  UNL1        0.2101
@<TRIPOS>BOND
     1     1     2    1
     2     1     3    1
     3     1     4    1
     4     1     8    1
     5     5     6    1
     6     5     7    1
     7     5     8    1
     8     5     9    1
     9     9    10    1
    10    10    11    1
    11    11    12    1
    12    11    13    1
    13    12    21    1
    14    13    14    1
    15    13    19    1
    16    14    15    1
    17    15    16    1
    18    15    17    1
    19    15    18    1
    20    19    20    1
    21    19    21    1
    22    21    22    1
    23    22    23   ar
    24    22    31   ar
    25    23    24   ar
    26    24    25   ar
    27    25    26   ar
    28    25    31   ar
    29    26    27    1
    30    26    28   ar
    31    28    29   ar
    32    29    30   ar
    33    30    31   ar
    34    32    10    1
    35    33    10    1
    36    11    34    1
    37    13    35    1
    38    19    36    1
    39    21    37    1
    40    38    23    1
    41    39    29    1
    42    40    27    1
    43    41    27    1
    44    42    20    1
@<TRIPOS>SUBSTRUCTURE
     1 UNL1        1 TEMP              0 ****  ****    0 ROOT

########## Name:	17	2526.64  0.295747
@<TRIPOS>MOLECULE
af2_protein.mol217	
 42 44 1 0 0
SMALL
GASTEIGER


@<TRIPOS>ATOM
      1 P          -2.4259   11.5774   -5.3335 P.3     1  UNL1        0.0544
      2 O          -1.9907   12.0895   -6.6486 O.co2   1  UNL1       -0.6615
      3 O          -1.3595   11.5798   -4.2754 O.co2   1  UNL1       -0.6615
      4 O          -3.1763   10.3022   -5.4076 O.co2   1  UNL1       -0.6615
      5 P          -4.2150   13.1340   -3.2756 P.3     1  UNL1        0.2491
      6 O          -3.0588   13.1276   -2.3311 O.co2   1  UNL1       -0.6337
      7 O          -5.4256   12.3449   -2.9204 O.co2   1  UNL1       -0.6337
      8 O          -3.5158   12.6797   -4.7795 O.3     1  UNL1       -0.0930
      9 O          -4.6452   14.6909   -3.4797 O.3     1  UNL1       -0.2057
     10 C          -4.8551   15.5377   -2.3670 C.3     1  UNL1        0.1232
     11 C          -5.9015   14.8578   -1.5336 C.3     1  UNL1        0.1214
     12 O          -5.1982   14.2572   -0.4409 O.3     1  UNL1       -0.3453
     13 C          -6.9275   15.8461   -0.9149 C.3     1  UNL1        0.1593
     14 O          -8.2265   15.1944   -0.8149 O.3     1  UNL1       -0.2421
     15 P          -9.0567   14.6804   -2.2160 P.3     1  UNL1       -0.0004
     16 O         -10.4084   15.2335   -1.9525 O.co2   1  UNL1       -0.6646
     17 O          -8.3007   15.3515   -3.3040 O.co2   1  UNL1       -0.6646
     18 O          -8.9308   13.1916   -2.2539 O.co2   1  UNL1       -0.6646
     19 C          -6.3152   16.0766    0.4614 C.3     1  UNL1        0.1329
     20 O          -7.3065   16.5658    1.3919 O.3     1  UNL1       -0.3845
     21 C          -5.9289   14.6077    0.7244 C.3     1  UNL1        0.1668
     22 N          -4.9857   14.3552    1.8370 N.ar    1  UNL1       -0.2855
     23 C          -5.3348   13.6418    2.9563 C.ar    1  UNL1        0.1004
     24 N          -4.3817   13.5295    3.8334 N.ar    1  UNL1       -0.2306
     25 C          -3.2730   14.2322    3.2623 C.ar    1  UNL1        0.1473
     26 C          -1.9104   14.4622    3.7338 C.ar    1  UNL1        0.1472
     27 N          -1.4924   14.0766    4.9551 N.pl3   1  UNL1       -0.3413
     28 N          -1.0775   15.1571    2.9150 N.ar    1  UNL1       -0.2188
     29 C          -1.5690   15.5991    1.7481 C.ar    1  UNL1        0.1205
     30 N          -2.7991   15.4709    1.1942 N.ar    1  UNL1       -0.2159
     31 C          -3.6340   14.7492    2.0229 C.ar    1  UNL1        0.1674
     32 H          -3.9324   15.6540   -1.7983 H       1  UNL1        0.0631
     33 H          -5.2153   16.5111   -2.6999 H       1  UNL1        0.0631
     34 H          -6.4154   14.0950   -2.1185 H       1  UNL1        0.0650
     35 H          -6.9869   16.7720   -1.4869 H       1  UNL1        0.0694
     36 H          -5.4417   16.7269    0.4159 H       1  UNL1        0.0667
     37 H          -6.8188   13.9862    0.8238 H       1  UNL1        0.0866
     38 H          -6.3155   13.2113    3.0962 H       1  UNL1        0.1030
     39 H          -0.8631   16.1524    1.1464 H       1  UNL1        0.1048
     40 H          -1.3151   13.1003    5.1434 H       1  UNL1        0.1438
     41 H          -1.3565   14.7639    5.6826 H       1  UNL1        0.1438
     42 H          -7.0780   16.2843    2.2808 H       1  UNL1        0.2101
@<TRIPOS>BOND
     1     1     2    1
     2     1     3    1
     3     1     4    1
     4     1     8    1
     5     5     6    1
     6     5     7    1
     7     5     8    1
     8     5     9    1
     9     9    10    1
    10    10    11    1
    11    11    12    1
    12    11    13    1
    13    12    21    1
    14    13    14    1
    15    13    19    1
    16    14    15    1
    17    15    16    1
    18    15    17    1
    19    15    18    1
    20    19    20    1
    21    19    21    1
    22    21    22    1
    23    22    23   ar
    24    22    31   ar
    25    23    24   ar
    26    24    25   ar
    27    25    26   ar
    28    25    31   ar
    29    26    27    1
    30    26    28   ar
    31    28    29   ar
    32    29    30   ar
    33    30    31   ar
    34    32    10    1
    35    33    10    1
    36    11    34    1
    37    13    35    1
    38    19    36    1
    39    21    37    1
    40    38    23    1
    41    39    29    1
    42    40    27    1
    43    41    27    1
    44    42    20    1
@<TRIPOS>SUBSTRUCTURE
     1 UNL1        1 TEMP              0 ****  ****    0 ROOT

########## Name:	18	2667.59  0.305162
@<TRIPOS>MOLECULE
af2_protein.mol218	
 42 44 1 0 0
SMALL
GASTEIGER


@<TRIPOS>ATOM
      1 P          -4.2564   10.9646   -5.2033 P.3     1  UNL1        0.0544
      2 O          -4.3239   11.3148   -6.6364 O.co2   1  UNL1       -0.6615
      3 O          -2.8685   10.9379   -4.6289 O.co2   1  UNL1       -0.6615
      4 O          -5.0650    9.7777   -4.8397 O.co2   1  UNL1       -0.6615
      5 P          -5.0066   12.8736   -2.8260 P.3     1  UNL1        0.2491
      6 O          -3.5801   12.8188   -2.3886 O.co2   1  UNL1       -0.6337
      7 O          -6.0405   12.2544   -1.9530 O.co2   1  UNL1       -0.6337
      8 O          -4.9708   12.2220   -4.4169 O.3     1  UNL1       -0.0930
      9 O          -5.3722   14.4459   -3.0374 O.3     1  UNL1       -0.2057
     10 C          -5.0799   15.4002   -2.0358 C.3     1  UNL1        0.1232
     11 C          -5.7716   14.9108   -0.7974 C.3     1  UNL1        0.1214
     12 O          -4.7471   14.3295    0.0160 O.3     1  UNL1       -0.3453
     13 C          -6.4104   16.0536    0.0381 C.3     1  UNL1        0.1593
     14 O          -7.6139   15.5590    0.6930 O.3     1  UNL1       -0.2421
     15 P          -8.9516   15.0245   -0.2245 P.3     1  UNL1       -0.0004
     16 O         -10.0568   15.7426    0.4576 O.co2   1  UNL1       -0.6646
     17 O          -8.6254   15.5159   -1.5875 O.co2   1  UNL1       -0.6646
     18 O          -8.9541   13.5329   -0.1300 O.co2   1  UNL1       -0.6646
     19 C          -5.3029   16.3291    1.0480 C.3     1  UNL1        0.1329
     20 O          -5.8250   16.9997    2.2165 O.3     1  UNL1       -0.3845
     21 C          -4.9489   14.8537    1.3196 C.3     1  UNL1        0.1668
     22 N          -3.6714   14.5925    2.0204 N.ar    1  UNL1       -0.2855
     23 C          -3.6138   14.0171    3.2651 C.ar    1  UNL1        0.1004
     24 N          -2.4077   13.8742    3.7289 N.ar    1  UNL1       -0.2306
     25 C          -1.5563   14.4011    2.7058 C.ar    1  UNL1        0.1473
     26 C          -0.1046   14.5186    2.6029 C.ar    1  UNL1        0.1472
     27 N           0.7215   14.1923    3.6158 N.pl3   1  UNL1       -0.3413
     28 N           0.3972   15.0475    1.4559 N.ar    1  UNL1       -0.2188
     29 C          -0.4719   15.4423    0.5138 C.ar    1  UNL1        0.1205
     30 N          -1.8260   15.4043    0.4794 N.ar    1  UNL1       -0.2159
     31 C          -2.3278   14.8498    1.6394 C.ar    1  UNL1        0.1674
     32 H          -4.0040   15.4614   -1.8714 H       1  UNL1        0.0631
     33 H          -5.4712   16.3762   -2.3227 H       1  UNL1        0.0631
     34 H          -6.5224   14.1630   -1.0529 H       1  UNL1        0.0650
     35 H          -6.6197   16.9297   -0.5756 H       1  UNL1        0.0694
     36 H          -4.4703   16.8736    0.6025 H       1  UNL1        0.0667
     37 H          -5.7738   14.3440    1.8174 H       1  UNL1        0.0866
     38 H          -4.4934   13.7100    3.8115 H       1  UNL1        0.1030
     39 H          -0.0137   15.8629   -0.3691 H       1  UNL1        0.1048
     40 H           0.8888   13.2214    3.8385 H       1  UNL1        0.1438
     41 H           1.1736   14.9185    4.1527 H       1  UNL1        0.1438
     42 H          -5.2935   16.7696    2.9821 H       1  UNL1        0.2101
@<TRIPOS>BOND
     1     1     2    1
     2     1     3    1
     3     1     4    1
     4     1     8    1
     5     5     6    1
     6     5     7    1
     7     5     8    1
     8     5     9    1
     9     9    10    1
    10    10    11    1
    11    11    12    1
    12    11    13    1
    13    12    21    1
    14    13    14    1
    15    13    19    1
    16    14    15    1
    17    15    16    1
    18    15    17    1
    19    15    18    1
    20    19    20    1
    21    19    21    1
    22    21    22    1
    23    22    23   ar
    24    22    31   ar
    25    23    24   ar
    26    24    25   ar
    27    25    26   ar
    28    25    31   ar
    29    26    27    1
    30    26    28   ar
    31    28    29   ar
    32    29    30   ar
    33    30    31   ar
    34    32    10    1
    35    33    10    1
    36    11    34    1
    37    13    35    1
    38    19    36    1
    39    21    37    1
    40    38    23    1
    41    39    29    1
    42    40    27    1
    43    41    27    1
    44    42    20    1
@<TRIPOS>SUBSTRUCTURE
     1 UNL1        1 TEMP              0 ****  ****    0 ROOT

########## Name:	19	2588.26  0.294165
@<TRIPOS>MOLECULE
af2_protein.mol219	
 42 44 1 0 0
SMALL
GASTEIGER


@<TRIPOS>ATOM
      1 P          -5.0923   10.2087   -4.8204 P.3     1  UNL1        0.0544
      2 O          -5.1434   10.3176   -6.2923 O.co2   1  UNL1       -0.6615
      3 O          -3.7064   10.1879   -4.2408 O.co2   1  UNL1       -0.6615
      4 O          -5.9752    9.1548   -4.2684 O.co2   1  UNL1       -0.6615
      5 P          -5.7048   12.5338   -2.8010 P.3     1  UNL1        0.2491
      6 O          -4.2829   12.4599   -2.3516 O.co2   1  UNL1       -0.6337
      7 O          -6.7729   12.1383   -1.8434 O.co2   1  UNL1       -0.6337
      8 O          -5.7191   11.6240   -4.2601 O.3     1  UNL1       -0.0930
      9 O          -5.9676   14.0689   -3.2751 O.3     1  UNL1       -0.2057
     10 C          -5.6088   15.1563   -2.4455 C.3     1  UNL1        0.1232
     11 C          -6.3253   14.9274   -1.1471 C.3     1  UNL1        0.1214
     12 O          -5.3373   14.4249   -0.2413 O.3     1  UNL1       -0.3453
     13 C          -6.8840   16.2333   -0.5188 C.3     1  UNL1        0.1593
     14 O          -8.1143   15.9350    0.2019 O.3     1  UNL1       -0.2421
     15 P          -9.4883   15.3430   -0.6216 P.3     1  UNL1       -0.0004
     16 O         -10.5409   16.2358   -0.0764 O.co2   1  UNL1       -0.6646
     17 O          -9.1370   15.5768   -2.0456 O.co2   1  UNL1       -0.6646
     18 O          -9.5880   13.8917   -0.2787 O.co2   1  UNL1       -0.6646
     19 C          -5.7561   16.6011    0.4377 C.3     1  UNL1        0.1329
     20 O          -6.2277   17.4905    1.4742 O.3     1  UNL1       -0.3845
     21 C          -5.4982   15.1720    0.9548 C.3     1  UNL1        0.1668
     22 N          -4.2374   14.9490    1.6976 N.ar    1  UNL1       -0.2855
     23 C          -4.2117   14.5877    3.0214 C.ar    1  UNL1        0.1004
     24 N          -3.0154   14.4459    3.5103 N.ar    1  UNL1       -0.2306
     25 C          -2.1361   14.7373    2.4188 C.ar    1  UNL1        0.1473
     26 C          -0.6803   14.7409    2.3069 C.ar    1  UNL1        0.1472
     27 N           0.1274   14.5355    3.3654 N.pl3   1  UNL1       -0.3413
     28 N          -0.1504   15.0363    1.0908 N.ar    1  UNL1       -0.2188
     29 C          -0.9961   15.3236    0.0904 C.ar    1  UNL1        0.1205
     30 N          -2.3500   15.3689    0.0542 N.ar    1  UNL1       -0.2159
     31 C          -2.8815   15.0506    1.2874 C.ar    1  UNL1        0.1674
     32 H          -4.5305   15.1737   -2.2868 H       1  UNL1        0.0631
     33 H          -5.9367   16.0938   -2.8943 H       1  UNL1        0.0631
     34 H          -7.1247   14.1981   -1.2786 H       1  UNL1        0.0650
     35 H          -7.0383   17.0060   -1.2718 H       1  UNL1        0.0694
     36 H          -4.8918   17.0076   -0.0873 H       1  UNL1        0.0667
     37 H          -6.3524   14.8079    1.5257 H       1  UNL1        0.0866
     38 H          -5.1070   14.4345    3.6058 H       1  UNL1        0.1030
     39 H          -0.5155   15.5595   -0.8475 H       1  UNL1        0.1048
     40 H           0.2317   13.6068    3.7486 H       1  UNL1        0.1438
     41 H           0.6285   15.3103    3.7760 H       1  UNL1        0.1438
     42 H          -5.7089   17.3577    2.2709 H       1  UNL1        0.2101
@<TRIPOS>BOND
     1     1     2    1
     2     1     3    1
     3     1     4    1
     4     1     8    1
     5     5     6    1
     6     5     7    1
     7     5     8    1
     8     5     9    1
     9     9    10    1
    10    10    11    1
    11    11    12    1
    12    11    13    1
    13    12    21    1
    14    13    14    1
    15    13    19    1
    16    14    15    1
    17    15    16    1
    18    15    17    1
    19    15    18    1
    20    19    20    1
    21    19    21    1
    22    21    22    1
    23    22    23   ar
    24    22    31   ar
    25    23    24   ar
    26    24    25   ar
    27    25    26   ar
    28    25    31   ar
    29    26    27    1
    30    26    28   ar
    31    28    29   ar
    32    29    30   ar
    33    30    31   ar
    34    32    10    1
    35    33    10    1
    36    11    34    1
    37    13    35    1
    38    19    36    1
    39    21    37    1
    40    38    23    1
    41    39    29    1
    42    40    27    1
    43    41    27    1
    44    42    20    1
@<TRIPOS>SUBSTRUCTURE
     1 UNL1        1 TEMP              0 ****  ****    0 ROOT

########## Name:	0	3161.29  0.34591
@<TRIPOS>MOLECULE
af2_protein.mol20	
 42 44 1 0 0
SMALL
GASTEIGER


@<TRIPOS>ATOM
      1 P          -6.2641   10.2188    4.0629 P.3     1  UNL1        0.0544
      2 O          -6.1313   10.1222    5.5305 O.co2   1  UNL1       -0.6615
      3 O          -7.4580   10.9992    3.5912 O.co2   1  UNL1       -0.6615
      4 O          -6.0941    8.9251    3.3613 O.co2   1  UNL1       -0.6615
      5 P          -4.5458   12.0704    2.1980 P.3     1  UNL1        0.2491
      6 O          -5.7957   12.8110    1.8541 O.co2   1  UNL1       -0.6337
      7 O          -3.8756   11.2767    1.1325 O.co2   1  UNL1       -0.6337
      8 O          -4.9894   11.1381    3.5731 O.3     1  UNL1       -0.0930
      9 O          -3.4923   13.1701    2.7735 O.3     1  UNL1       -0.2057
     10 C          -3.2313   14.3655    2.0649 C.3     1  UNL1        0.1232
     11 C          -2.7762   13.9355    0.7012 C.3     1  UNL1        0.1214
     12 O          -3.8988   14.1357   -0.1642 O.3     1  UNL1       -0.3453
     13 C          -1.6191   14.8063    0.1400 C.3     1  UNL1        0.1593
     14 O          -0.7550   13.9824   -0.6945 O.3     1  UNL1       -0.2421
     15 P           0.1062   12.6662   -0.0292 P.3     1  UNL1       -0.0004
     16 O           1.4613   12.9187   -0.5790 O.co2   1  UNL1       -0.6646
     17 O          -0.0350   12.8931    1.4317 O.co2   1  UNL1       -0.6646
     18 O          -0.5933   11.4304   -0.4953 O.co2   1  UNL1       -0.6646
     19 C          -2.3952   15.8181   -0.6944 C.3     1  UNL1        0.1329
     20 O          -1.5431   16.4295   -1.6882 O.3     1  UNL1       -0.3845
     21 C          -3.3887   14.8096   -1.3045 C.3     1  UNL1        0.1668
     22 N          -4.5887   15.3716   -1.9643 N.ar    1  UNL1       -0.2855
     23 C          -4.8318   15.2263   -3.3072 C.ar    1  UNL1        0.1004
     24 N          -5.9284   15.7946   -3.7131 N.ar    1  UNL1       -0.2306
     25 C          -6.4919   16.3862   -2.5375 C.ar    1  UNL1        0.1473
     26 C          -7.7171   17.1484   -2.3147 C.ar    1  UNL1        0.1472
     27 N          -8.5317   17.5196   -3.3215 N.pl3   1  UNL1       -0.3413
     28 N          -7.9807   17.5446   -1.0417 N.ar    1  UNL1       -0.2188
     29 C          -7.0914   17.2285   -0.0888 C.ar    1  UNL1        0.1205
     30 N          -5.9230   16.5451   -0.1528 N.ar    1  UNL1       -0.2159
     31 C          -5.6707   16.1307   -1.4447 C.ar    1  UNL1        0.1674
     32 H          -4.1360   14.9690    1.9911 H       1  UNL1        0.0631
     33 H          -2.4431   14.9310    2.5619 H       1  UNL1        0.0631
     34 H          -2.4885   12.8841    0.7115 H       1  UNL1        0.0650
     35 H          -1.0593   15.2919    0.9393 H       1  UNL1        0.0694
     36 H          -2.8965   16.5605   -0.0735 H       1  UNL1        0.0667
     37 H          -2.8742   14.1132   -1.9667 H       1  UNL1        0.0866
     38 H          -4.1701   14.6869   -3.9689 H       1  UNL1        0.1030
     39 H          -7.3511   17.5789    0.8991 H       1  UNL1        0.1048
     40 H          -9.1249   16.8360   -3.7697 H       1  UNL1        0.1438
     41 H          -8.5491   18.4817   -3.6283 H       1  UNL1        0.1438
     42 H          -2.0693   16.6800   -2.4511 H       1  UNL1        0.2101
@<TRIPOS>BOND
     1     1     2    1
     2     1     3    1
     3     1     4    1
     4     1     8    1
     5     5     6    1
     6     5     7    1
     7     5     8    1
     8     5     9    1
     9     9    10    1
    10    10    11    1
    11    11    12    1
    12    11    13    1
    13    12    21    1
    14    13    14    1
    15    13    19    1
    16    14    15    1
    17    15    16    1
    18    15    17    1
    19    15    18    1
    20    19    20    1
    21    19    21    1
    22    21    22    1
    23    22    23   ar
    24    22    31   ar
    25    23    24   ar
    26    24    25   ar
    27    25    26   ar
    28    25    31   ar
    29    26    27    1
    30    26    28   ar
    31    28    29   ar
    32    29    30   ar
    33    30    31   ar
    34    32    10    1
    35    33    10    1
    36    11    34    1
    37    13    35    1
    38    19    36    1
    39    21    37    1
    40    38    23    1
    41    39    29    1
    42    40    27    1
    43    41    27    1
    44    42    20    1
@<TRIPOS>SUBSTRUCTURE
     1 UNL1        1 TEMP              0 ****  ****    0 ROOT

########## Name:	1	3193.84  0.351208
@<TRIPOS>MOLECULE
af2_protein.mol21	
 42 44 1 0 0
SMALL
GASTEIGER


@<TRIPOS>ATOM
      1 P          -6.2640   16.6908   -6.1644 P.3     1  UNL1        0.0544
      2 O          -5.7983   17.9078   -6.8594 O.co2   1  UNL1       -0.6615
      3 O          -5.2574   15.5770   -6.1078 O.co2   1  UNL1       -0.6615
      4 O          -7.6124   16.2426   -6.5833 O.co2   1  UNL1       -0.6615
      5 P          -6.5316   16.3616   -3.0533 P.3     1  UNL1        0.2491
      6 O          -5.4733   15.3104   -3.1169 O.co2   1  UNL1       -0.6337
      7 O          -7.9133   15.9553   -2.6788 O.co2   1  UNL1       -0.6337
      8 O          -6.4342   17.1319   -4.5875 O.3     1  UNL1       -0.0930
      9 O          -6.0119   17.4871   -1.9981 O.3     1  UNL1       -0.2057
     10 C          -5.5425   17.1185   -0.7162 C.3     1  UNL1        0.1232
     11 C          -6.6636   16.3493   -0.0813 C.3     1  UNL1        0.1214
     12 O          -6.2919   14.9703   -0.1774 O.3     1  UNL1       -0.3453
     13 C          -6.8389   16.6601    1.4303 C.3     1  UNL1        0.1593
     14 O          -8.2479   16.5550    1.7850 O.3     1  UNL1       -0.2421
     15 P          -9.4048   17.6013    1.0897 P.3     1  UNL1       -0.0004
     16 O         -10.1415   18.0397    2.3011 O.co2   1  UNL1       -0.6646
     17 O          -8.5578   18.6427    0.4541 O.co2   1  UNL1       -0.6646
     18 O         -10.1639   16.7835    0.0954 O.co2   1  UNL1       -0.6646
     19 C          -6.0242   15.5338    2.0548 C.3     1  UNL1        0.1329
     20 O          -6.4157   15.3138    3.4282 O.3     1  UNL1       -0.3845
     21 C          -6.5207   14.4207    1.1111 C.3     1  UNL1        0.1668
     22 N          -5.7527   13.1552    1.1104 N.ar    1  UNL1       -0.2855
     23 C          -6.2914   11.9618    1.5220 C.ar    1  UNL1        0.1004
     24 N          -5.4669   10.9583    1.4626 N.ar    1  UNL1       -0.2306
     25 C          -4.2465   11.5151    0.9628 C.ar    1  UNL1        0.1473
     26 C          -2.9504   10.9177    0.6544 C.ar    1  UNL1        0.1472
     27 N          -2.6678    9.6268    0.9167 N.pl3   1  UNL1       -0.3413
     28 N          -1.9910   11.7381    0.1509 N.ar    1  UNL1       -0.2188
     29 C          -2.2931   13.0353   -0.0059 C.ar    1  UNL1        0.1205
     30 N          -3.4351   13.7203    0.2453 N.ar    1  UNL1       -0.2159
     31 C          -4.4102   12.8779    0.7394 C.ar    1  UNL1        0.1674
     32 H          -4.6535   16.4937   -0.8021 H       1  UNL1        0.0631
     33 H          -5.3193   18.0091   -0.1288 H       1  UNL1        0.0631
     34 H          -7.5966   16.5284   -0.6157 H       1  UNL1        0.0650
     35 H          -6.4330   17.6383    1.6878 H       1  UNL1        0.0694
     36 H          -4.9519   15.7033    1.9579 H       1  UNL1        0.0667
     37 H          -7.5823   14.2281    1.2660 H       1  UNL1        0.0866
     38 H          -7.3109   11.8649    1.8651 H       1  UNL1        0.1030
     39 H          -1.4879   13.6375   -0.4000 H       1  UNL1        0.1048
     40 H          -3.0601    8.8965    0.3397 H       1  UNL1        0.1438
     41 H          -2.0637    9.3893    1.6904 H       1  UNL1        0.1438
     42 H          -6.2716   14.3931    3.6588 H       1  UNL1        0.2101
@<TRIPOS>BOND
     1     1     2    1
     2     1     3    1
     3     1     4    1
     4     1     8    1
     5     5     6    1
     6     5     7    1
     7     5     8    1
     8     5     9    1
     9     9    10    1
    10    10    11    1
    11    11    12    1
    12    11    13    1
    13    12    21    1
    14    13    14    1
    15    13    19    1
    16    14    15    1
    17    15    16    1
    18    15    17    1
    19    15    18    1
    20    19    20    1
    21    19    21    1
    22    21    22    1
    23    22    23   ar
    24    22    31   ar
    25    23    24   ar
    26    24    25   ar
    27    25    26   ar
    28    25    31   ar
    29    26    27    1
    30    26    28   ar
    31    28    29   ar
    32    29    30   ar
    33    30    31   ar
    34    32    10    1
    35    33    10    1
    36    11    34    1
    37    13    35    1
    38    19    36    1
    39    21    37    1
    40    38    23    1
    41    39    29    1
    42    40    27    1
    43    41    27    1
    44    42    20    1
@<TRIPOS>SUBSTRUCTURE
     1 UNL1        1 TEMP              0 ****  ****    0 ROOT

########## Name:	2	2898.18  0.329799
@<TRIPOS>MOLECULE
af2_protein.mol22	
 42 44 1 0 0
SMALL
GASTEIGER


@<TRIPOS>ATOM
      1 P          -6.1784   15.6753    6.3919 P.3     1  UNL1        0.0544
      2 O          -7.0698   15.7116    7.5687 O.co2   1  UNL1       -0.6615
      3 O          -5.8867   14.2977    5.8684 O.co2   1  UNL1       -0.6615
      4 O          -4.9680   16.5179    6.5331 O.co2   1  UNL1       -0.6615
      5 P          -7.0089   16.4168    3.4560 P.3     1  UNL1        0.2491
      6 O          -6.7447   14.9991    3.0692 O.co2   1  UNL1       -0.6337
      7 O          -6.1240   17.4789    2.9056 O.co2   1  UNL1       -0.6337
      8 O          -7.0407   16.3715    5.1747 O.3     1  UNL1       -0.0930
      9 O          -8.5458   16.7410    3.0281 O.3     1  UNL1       -0.2057
     10 C          -9.0161   16.4416    1.7287 C.3     1  UNL1        0.1232
     11 C          -8.0956   17.1645    0.7895 C.3     1  UNL1        0.1214
     12 O          -7.2107   16.1673    0.2684 O.3     1  UNL1       -0.3453
     13 C          -8.8312   17.7886   -0.4277 C.3     1  UNL1        0.1593
     14 O          -8.1519   19.0140   -0.8265 O.3     1  UNL1       -0.2421
     15 P          -8.0632   20.3494    0.2344 P.3     1  UNL1       -0.0004
     16 O          -8.4830   21.4477   -0.6712 O.co2   1  UNL1       -0.6646
     17 O          -9.0452   19.9899    1.2889 O.co2   1  UNL1       -0.6646
     18 O          -6.6571   20.3894    0.7394 O.co2   1  UNL1       -0.6646
     19 C          -8.6522   16.6909   -1.4694 C.3     1  UNL1        0.1329
     20 O          -8.8191   17.2151   -2.8055 O.3     1  UNL1       -0.3845
     21 C          -7.1806   16.3769   -1.1351 C.3     1  UNL1        0.1668
     22 N          -6.6268   15.1174   -1.6811 N.ar    1  UNL1       -0.2855
     23 C          -5.6037   15.0934   -2.5957 C.ar    1  UNL1        0.1004
     24 N          -5.2544   13.8985   -2.9707 N.ar    1  UNL1       -0.2306
     25 C          -6.1194   13.0186   -2.2448 C.ar    1  UNL1        0.1473
     26 C          -6.2268   11.5631   -2.2041 C.ar    1  UNL1        0.1472
     27 N          -5.5023   10.7611   -3.0086 N.pl3   1  UNL1       -0.3413
     28 N          -7.1526   11.0306   -1.3636 N.ar    1  UNL1       -0.2188
     29 C          -7.9130   11.8749   -0.6512 C.ar    1  UNL1        0.1205
     30 N          -7.9302   13.2288   -0.5978 N.ar    1  UNL1       -0.2159
     31 C          -6.9759   13.7621   -1.4401 C.ar    1  UNL1        0.1674
     32 H          -8.9765   15.3674    1.5482 H       1  UNL1        0.0631
     33 H         -10.0365   16.8047    1.6068 H       1  UNL1        0.0631
     34 H          -7.5321   17.9290    1.3245 H       1  UNL1        0.0650
     35 H          -9.8844   17.9670   -0.2109 H       1  UNL1        0.0694
     36 H          -9.3048   15.8386   -1.2806 H       1  UNL1        0.0667
     37 H          -6.5389   17.2216   -1.3858 H       1  UNL1        0.0866
     38 H          -5.1302   15.9886   -2.9709 H       1  UNL1        0.1030
     39 H          -8.6360   11.3928   -0.0099 H       1  UNL1        0.1048
     40 H          -4.5184   10.6209   -2.8286 H       1  UNL1        0.1438
     41 H          -5.9430   10.3003   -3.7918 H       1  UNL1        0.1438
     42 H          -8.2893   16.7015   -3.4196 H       1  UNL1        0.2101
@<TRIPOS>BOND
     1     1     2    1
     2     1     3    1
     3     1     4    1
     4     1     8    1
     5     5     6    1
     6     5     7    1
     7     5     8    1
     8     5     9    1
     9     9    10    1
    10    10    11    1
    11    11    12    1
    12    11    13    1
    13    12    21    1
    14    13    14    1
    15    13    19    1
    16    14    15    1
    17    15    16    1
    18    15    17    1
    19    15    18    1
    20    19    20    1
    21    19    21    1
    22    21    22    1
    23    22    23   ar
    24    22    31   ar
    25    23    24   ar
    26    24    25   ar
    27    25    26   ar
    28    25    31   ar
    29    26    27    1
    30    26    28   ar
    31    28    29   ar
    32    29    30   ar
    33    30    31   ar
    34    32    10    1
    35    33    10    1
    36    11    34    1
    37    13    35    1
    38    19    36    1
    39    21    37    1
    40    38    23    1
    41    39    29    1
    42    40    27    1
    43    41    27    1
    44    42    20    1
@<TRIPOS>SUBSTRUCTURE
     1 UNL1        1 TEMP              0 ****  ****    0 ROOT

########## Name:	3	3087.13  0.310955
@<TRIPOS>MOLECULE
af2_protein.mol23	
 42 44 1 0 0
SMALL
GASTEIGER


@<TRIPOS>ATOM
      1 P          -1.8495   11.2025   -1.0926 P.3     1  UNL1        0.0544
      2 O          -1.2937   10.0084   -0.4245 O.co2   1  UNL1       -0.6615
      3 O          -2.9394   10.9152   -2.0859 O.co2   1  UNL1       -0.6615
      4 O          -0.8183   12.1342   -1.6058 O.co2   1  UNL1       -0.6615
      5 P          -3.8308   13.2603    0.2108 P.3     1  UNL1        0.2491
      6 O          -4.8551   12.8439   -0.7924 O.co2   1  UNL1       -0.6337
      7 O          -3.2860   14.6430    0.1363 O.co2   1  UNL1       -0.6337
      8 O          -2.6253   12.0397    0.0937 O.3     1  UNL1       -0.0930
      9 O          -4.4956   13.0373    1.6801 O.3     1  UNL1       -0.2057
     10 C          -5.7802   13.5461    1.9804 C.3     1  UNL1        0.1232
     11 C          -5.7047   15.0198    1.7085 C.3     1  UNL1        0.1214
     12 O          -6.3567   15.2166    0.4494 O.3     1  UNL1       -0.3453
     13 C          -6.4780   15.8740    2.7499 C.3     1  UNL1        0.1593
     14 O          -5.8001   17.1512    2.9265 O.3     1  UNL1       -0.2421
     15 P          -4.2111   17.2189    3.5487 P.3     1  UNL1       -0.0004
     16 O          -4.3662   18.2713    4.5835 O.co2   1  UNL1       -0.6646
     17 O          -4.0101   15.8435    4.0716 O.co2   1  UNL1       -0.6646
     18 O          -3.3217   17.5355    2.3900 O.co2   1  UNL1       -0.6646
     19 C          -7.8173   16.0497    2.0445 C.3     1  UNL1        0.1329
     20 O          -8.5334   17.1881    2.5727 O.3     1  UNL1       -0.3845
     21 C          -7.2374   16.3130    0.6408 C.3     1  UNL1        0.1668
     22 N          -8.1804   16.2275   -0.4971 N.ar    1  UNL1       -0.2855
     23 C          -8.4923   17.3084   -1.2833 C.ar    1  UNL1        0.1004
     24 N          -9.3460   17.0488   -2.2288 N.ar    1  UNL1       -0.2306
     25 C          -9.6491   15.6579   -2.0778 C.ar    1  UNL1        0.1473
     26 C         -10.5188   14.7570   -2.8287 C.ar    1  UNL1        0.1472
     27 N         -11.3173   15.1858   -3.8255 N.pl3   1  UNL1       -0.3413
     28 N         -10.5550   13.4563   -2.4364 N.ar    1  UNL1       -0.2188
     29 C          -9.8107   13.0983   -1.3797 C.ar    1  UNL1        0.1205
     30 N          -8.9774   13.8203   -0.5919 N.ar    1  UNL1       -0.2159
     31 C          -8.9319   15.1356   -1.0069 C.ar    1  UNL1        0.1674
     32 H          -6.5321   13.0799    1.3436 H       1  UNL1        0.0631
     33 H          -6.0168   13.3702    3.0297 H       1  UNL1        0.0631
     34 H          -4.6649   15.3420    1.6512 H       1  UNL1        0.0650
     35 H          -6.5904   15.3460    3.6968 H       1  UNL1        0.0694
     36 H          -8.4171   15.1401    2.0746 H       1  UNL1        0.0667
     37 H          -6.6909   17.2559    0.6194 H       1  UNL1        0.0866
     38 H          -8.0658   18.2888   -1.1299 H       1  UNL1        0.1030
     39 H          -9.8891   12.0553   -1.1104 H       1  UNL1        0.1048
     40 H         -10.9199   15.4312   -4.7210 H       1  UNL1        0.1438
     41 H         -12.3134   15.2620   -3.6772 H       1  UNL1        0.1438
     42 H          -9.0930   17.5607    1.8874 H       1  UNL1        0.2101
@<TRIPOS>BOND
     1     1     2    1
     2     1     3    1
     3     1     4    1
     4     1     8    1
     5     5     6    1
     6     5     7    1
     7     5     8    1
     8     5     9    1
     9     9    10    1
    10    10    11    1
    11    11    12    1
    12    11    13    1
    13    12    21    1
    14    13    14    1
    15    13    19    1
    16    14    15    1
    17    15    16    1
    18    15    17    1
    19    15    18    1
    20    19    20    1
    21    19    21    1
    22    21    22    1
    23    22    23   ar
    24    22    31   ar
    25    23    24   ar
    26    24    25   ar
    27    25    26   ar
    28    25    31   ar
    29    26    27    1
    30    26    28   ar
    31    28    29   ar
    32    29    30   ar
    33    30    31   ar
    34    32    10    1
    35    33    10    1
    36    11    34    1
    37    13    35    1
    38    19    36    1
    39    21    37    1
    40    38    23    1
    41    39    29    1
    42    40    27    1
    43    41    27    1
    44    42    20    1
@<TRIPOS>SUBSTRUCTURE
     1 UNL1        1 TEMP              0 ****  ****    0 ROOT

########## Name:	4	3357.59  0.344707
@<TRIPOS>MOLECULE
af2_protein.mol24	
 42 44 1 0 0
SMALL
GASTEIGER


@<TRIPOS>ATOM
      1 P         -11.2874   16.9911    7.3826 P.3     1  UNL1        0.0544
      2 O         -12.3748   16.2860    8.0908 O.co2   1  UNL1       -0.6615
      3 O          -9.9620   16.2842    7.4060 O.co2   1  UNL1       -0.6615
      4 O         -11.1908   18.4307    7.7185 O.co2   1  UNL1       -0.6615
      5 P         -10.9450   17.1434    4.2651 P.3     1  UNL1        0.2491
      6 O          -9.6712   16.3783    4.4110 O.co2   1  UNL1       -0.6337
      7 O         -10.8747   18.5573    3.8067 O.co2   1  UNL1       -0.6337
      8 O         -11.7119   16.9538    5.7925 O.3     1  UNL1       -0.0930
      9 O         -11.8811   16.3031    3.2317 O.3     1  UNL1       -0.2057
     10 C         -11.3738   15.8613    1.9880 C.3     1  UNL1        0.1232
     11 C         -10.8810   17.0956    1.2913 C.3     1  UNL1        0.1214
     12 O          -9.4563   17.0770    1.4291 O.3     1  UNL1       -0.3453
     13 C         -11.1822   17.0989   -0.2324 C.3     1  UNL1        0.1593
     14 O         -11.4112   18.4671   -0.6768 O.3     1  UNL1       -0.2421
     15 P         -12.7255   19.3744   -0.0718 P.3     1  UNL1       -0.0004
     16 O         -13.2948   19.9082   -1.3341 O.co2   1  UNL1       -0.6646
     17 O         -13.5485   18.3393    0.6043 O.co2   1  UNL1       -0.6646
     18 O         -12.1441   20.3680    0.8814 O.co2   1  UNL1       -0.6646
     19 C          -9.8751   16.5467   -0.7881 C.3     1  UNL1        0.1329
     20 O          -9.7177   16.8967   -2.1811 O.3     1  UNL1       -0.3845
     21 C          -8.9423   17.3547    0.1355 C.3     1  UNL1        0.1668
     22 N          -7.5291   16.9191    0.2024 N.ar    1  UNL1       -0.2855
     23 C          -6.4904   17.7062   -0.2281 C.ar    1  UNL1        0.1004
     24 N          -5.3193   17.1558   -0.1022 N.ar    1  UNL1       -0.2306
     25 C          -5.5782   15.8689    0.4689 C.ar    1  UNL1        0.1473
     26 C          -4.6939   14.7780    0.8686 C.ar    1  UNL1        0.1472
     27 N          -3.3661   14.8026    0.6419 N.pl3   1  UNL1       -0.3413
     28 N          -5.2716   13.6798    1.4230 N.ar    1  UNL1       -0.2188
     29 C          -6.6073   13.6662    1.5432 C.ar    1  UNL1        0.1205
     30 N          -7.5408   14.5900    1.2094 N.ar    1  UNL1       -0.2159
     31 C          -6.9458   15.7092    0.6637 C.ar    1  UNL1        0.1674
     32 H         -10.5551   15.1577    2.1396 H       1  UNL1        0.0631
     33 H         -12.1669   15.3933    1.4050 H       1  UNL1        0.0631
     34 H         -11.2956   17.9874    1.7614 H       1  UNL1        0.0650
     35 H         -12.0254   16.4525   -0.4754 H       1  UNL1        0.0694
     36 H          -9.7828   15.4731   -0.6237 H       1  UNL1        0.0667
     37 H          -9.0080   18.4200   -0.0857 H       1  UNL1        0.0866
     38 H          -6.6334   18.6961   -0.6356 H       1  UNL1        0.1030
     39 H          -7.0076   12.7638    1.9812 H       1  UNL1        0.1048
     40 H          -2.7690   15.3947    1.2014 H       1  UNL1        0.1438
     41 H          -2.9677   14.2291   -0.0878 H       1  UNL1        0.1438
     42 H          -8.7833   16.9673   -2.3900 H       1  UNL1        0.2101
@<TRIPOS>BOND
     1     1     2    1
     2     1     3    1
     3     1     4    1
     4     1     8    1
     5     5     6    1
     6     5     7    1
     7     5     8    1
     8     5     9    1
     9     9    10    1
    10    10    11    1
    11    11    12    1
    12    11    13    1
    13    12    21    1
    14    13    14    1
    15    13    19    1
    16    14    15    1
    17    15    16    1
    18    15    17    1
    19    15    18    1
    20    19    20    1
    21    19    21    1
    22    21    22    1
    23    22    23   ar
    24    22    31   ar
    25    23    24   ar
    26    24    25   ar
    27    25    26   ar
    28    25    31   ar
    29    26    27    1
    30    26    28   ar
    31    28    29   ar
    32    29    30   ar
    33    30    31   ar
    34    32    10    1
    35    33    10    1
    36    11    34    1
    37    13    35    1
    38    19    36    1
    39    21    37    1
    40    38    23    1
    41    39    29    1
    42    40    27    1
    43    41    27    1
    44    42    20    1
@<TRIPOS>SUBSTRUCTURE
     1 UNL1        1 TEMP              0 ****  ****    0 ROOT

########## Name:	5	3090.21  0.348325
@<TRIPOS>MOLECULE
af2_protein.mol25	
 42 44 1 0 0
SMALL
GASTEIGER


@<TRIPOS>ATOM
      1 P          -3.5651   20.0103    0.1749 P.3     1  UNL1        0.0544
      2 O          -2.1258   20.2003   -0.0959 O.co2   1  UNL1       -0.6615
      3 O          -4.4448   20.0662   -1.0416 O.co2   1  UNL1       -0.6615
      4 O          -4.0729   20.8235    1.3043 O.co2   1  UNL1       -0.6615
      5 P          -4.9481   17.2672    0.8244 P.3     1  UNL1        0.2491
      6 O          -5.7210   17.4055   -0.4455 O.co2   1  UNL1       -0.6337
      7 O          -5.6858   17.3364    2.1149 O.co2   1  UNL1       -0.6337
      8 O          -3.7079   18.4493    0.6778 O.3     1  UNL1       -0.0930
      9 O          -4.1648   15.8423    0.7439 O.3     1  UNL1       -0.2057
     10 C          -4.8514   14.6549    0.4004 C.3     1  UNL1        0.1232
     11 C          -5.9676   14.5315    1.3957 C.3     1  UNL1        0.1214
     12 O          -7.1515   14.9446    0.7052 O.3     1  UNL1       -0.3453
     13 C          -6.2106   13.0706    1.8637 C.3     1  UNL1        0.1593
     14 O          -6.6669   13.0758    3.2471 O.3     1  UNL1       -0.2421
     15 P          -5.6637   13.6671    4.4963 P.3     1  UNL1       -0.0004
     16 O          -5.7848   12.5698    5.4882 O.co2   1  UNL1       -0.6646
     17 O          -4.3418   13.7707    3.8273 O.co2   1  UNL1       -0.6646
     18 O          -6.2227   14.9969    4.8872 O.co2   1  UNL1       -0.6646
     19 C          -7.3231   12.6427    0.9142 C.3     1  UNL1        0.1329
     20 O          -8.0496   11.5127    1.4464 O.3     1  UNL1       -0.3845
     21 C          -8.1278   13.9551    0.9920 C.3     1  UNL1        0.1668
     22 N          -9.1701   14.1603   -0.0389 N.ar    1  UNL1       -0.2855
     23 C         -10.5060   14.2431    0.2649 C.ar    1  UNL1        0.1004
     24 N         -11.2762   14.4141   -0.7684 N.ar    1  UNL1       -0.2306
     25 C         -10.3849   14.4525   -1.8880 C.ar    1  UNL1        0.1473
     26 C         -10.6150   14.6343   -3.3183 C.ar    1  UNL1        0.1472
     27 N         -11.8511   14.7071   -3.8490 N.pl3   1  UNL1       -0.3413
     28 N          -9.5226   14.6554   -4.1267 N.ar    1  UNL1       -0.2188
     29 C          -8.3188   14.4867   -3.5599 C.ar    1  UNL1        0.1205
     30 N          -7.9622   14.2991   -2.2661 N.ar    1  UNL1       -0.2159
     31 C          -9.0745   14.2967   -1.4492 C.ar    1  UNL1        0.1674
     32 H          -5.2504   14.7256   -0.6115 H       1  UNL1        0.0631
     33 H          -4.1818   13.7987    0.4802 H       1  UNL1        0.0631
     34 H          -5.7840   15.1785    2.2535 H       1  UNL1        0.0650
     35 H          -5.3189   12.4563    1.7384 H       1  UNL1        0.0694
     36 H          -6.9501   12.4513   -0.0919 H       1  UNL1        0.0667
     37 H          -8.5396   14.0969    1.9912 H       1  UNL1        0.0866
     38 H         -10.8843   14.1725    1.2741 H       1  UNL1        0.1030
     39 H          -7.4916   14.5031   -4.2541 H       1  UNL1        0.1048
     40 H         -12.4045   15.5433   -3.7276 H       1  UNL1        0.1438
     41 H         -12.2246   13.9254   -4.3681 H       1  UNL1        0.1438
     42 H          -8.9556   11.5365    1.1297 H       1  UNL1        0.2101
@<TRIPOS>BOND
     1     1     2    1
     2     1     3    1
     3     1     4    1
     4     1     8    1
     5     5     6    1
     6     5     7    1
     7     5     8    1
     8     5     9    1
     9     9    10    1
    10    10    11    1
    11    11    12    1
    12    11    13    1
    13    12    21    1
    14    13    14    1
    15    13    19    1
    16    14    15    1
    17    15    16    1
    18    15    17    1
    19    15    18    1
    20    19    20    1
    21    19    21    1
    22    21    22    1
    23    22    23   ar
    24    22    31   ar
    25    23    24   ar
    26    24    25   ar
    27    25    26   ar
    28    25    31   ar
    29    26    27    1
    30    26    28   ar
    31    28    29   ar
    32    29    30   ar
    33    30    31   ar
    34    32    10    1
    35    33    10    1
    36    11    34    1
    37    13    35    1
    38    19    36    1
    39    21    37    1
    40    38    23    1
    41    39    29    1
    42    40    27    1
    43    41    27    1
    44    42    20    1
@<TRIPOS>SUBSTRUCTURE
     1 UNL1        1 TEMP              0 ****  ****    0 ROOT

########## Name:	6	2933.56  0.343516
@<TRIPOS>MOLECULE
af2_protein.mol26	
 42 44 1 0 0
SMALL
GASTEIGER


@<TRIPOS>ATOM
      1 P          -1.7512   18.1599   -4.2861 P.3     1  UNL1        0.0544
      2 O          -0.8279   17.8581   -5.3985 O.co2   1  UNL1       -0.6615
      3 O          -3.2036   18.1954   -4.6686 O.co2   1  UNL1       -0.6615
      4 O          -1.3334   19.3166   -3.4600 O.co2   1  UNL1       -0.6615
      5 P          -2.5855   16.1547   -2.0185 P.3     1  UNL1        0.2491
      6 O          -3.9857   16.2238   -2.5321 O.co2   1  UNL1       -0.6337
      7 O          -2.2944   16.7219   -0.6739 O.co2   1  UNL1       -0.6337
      8 O          -1.6534   16.8615   -3.2788 O.3     1  UNL1       -0.0930
      9 O          -2.1594   14.5835   -2.0282 O.3     1  UNL1       -0.2057
     10 C          -2.9944   13.6013   -1.4471 C.3     1  UNL1        0.1232
     11 C          -3.1963   14.0333   -0.0243 C.3     1  UNL1        0.1214
     12 O          -4.5068   14.6071    0.0254 O.3     1  UNL1       -0.3453
     13 C          -3.1889   12.8493    0.9808 C.3     1  UNL1        0.1593
     14 O          -2.6301   13.2960    2.2498 O.3     1  UNL1       -0.2421
     15 P          -1.0125   13.8342    2.3515 P.3     1  UNL1       -0.0004
     16 O          -0.5430   13.0703    3.5341 O.co2   1  UNL1       -0.6646
     17 O          -0.4442   13.3971    1.0509 O.co2   1  UNL1       -0.6646
     18 O          -1.0745   15.3213    2.4879 O.co2   1  UNL1       -0.6646
     19 C          -4.6805   12.5619    1.1022 C.3     1  UNL1        0.1329
     20 O          -4.9698   11.8407    2.3203 O.3     1  UNL1       -0.3845
     21 C          -5.1334   14.0341    1.1628 C.3     1  UNL1        0.1668
     22 N          -6.5755   14.2972    0.9571 N.ar    1  UNL1       -0.2855
     23 C          -7.3779   14.8302    1.9347 C.ar    1  UNL1        0.1004
     24 N          -8.6192   14.9819    1.5790 N.ar    1  UNL1       -0.2306
     25 C          -8.6745   14.5083    0.2292 C.ar    1  UNL1        0.1473
     26 C          -9.7667   14.4244   -0.7361 C.ar    1  UNL1        0.1472
     27 N         -11.0391   14.7325   -0.4180 N.pl3   1  UNL1       -0.3413
     28 N          -9.4689   13.9460   -1.9729 N.ar    1  UNL1       -0.2188
     29 C          -8.2050   13.5662   -2.2115 C.ar    1  UNL1        0.1205
     30 N          -7.1068   13.5774   -1.4175 N.ar    1  UNL1       -0.2159
     31 C          -7.4127   14.0809   -0.1695 C.ar    1  UNL1        0.1674
     32 H          -3.9497   13.5567   -1.9701 H       1  UNL1        0.0631
     33 H          -2.5048   12.6280   -1.4774 H       1  UNL1        0.0631
     34 H          -2.4475   14.7738    0.2570 H       1  UNL1        0.0650
     35 H          -2.6467   11.9908    0.5846 H       1  UNL1        0.0694
     36 H          -5.0707   12.0505    0.2222 H       1  UNL1        0.0667
     37 H          -4.7809   14.5091    2.0783 H       1  UNL1        0.0866
     38 H          -7.0103   15.1001    2.9138 H       1  UNL1        0.1030
     39 H          -8.0328   13.1860   -3.2076 H       1  UNL1        0.1048
     40 H         -11.3114   15.6983   -0.3033 H       1  UNL1        0.1438
     41 H         -11.7207   13.9976   -0.2939 H       1  UNL1        0.1438
     42 H          -5.8575   12.0551    2.6164 H       1  UNL1        0.2101
@<TRIPOS>BOND
     1     1     2    1
     2     1     3    1
     3     1     4    1
     4     1     8    1
     5     5     6    1
     6     5     7    1
     7     5     8    1
     8     5     9    1
     9     9    10    1
    10    10    11    1
    11    11    12    1
    12    11    13    1
    13    12    21    1
    14    13    14    1
    15    13    19    1
    16    14    15    1
    17    15    16    1
    18    15    17    1
    19    15    18    1
    20    19    20    1
    21    19    21    1
    22    21    22    1
    23    22    23   ar
    24    22    31   ar
    25    23    24   ar
    26    24    25   ar
    27    25    26   ar
    28    25    31   ar
    29    26    27    1
    30    26    28   ar
    31    28    29   ar
    32    29    30   ar
    33    30    31   ar
    34    32    10    1
    35    33    10    1
    36    11    34    1
    37    13    35    1
    38    19    36    1
    39    21    37    1
    40    38    23    1
    41    39    29    1
    42    40    27    1
    43    41    27    1
    44    42    20    1
@<TRIPOS>SUBSTRUCTURE
     1 UNL1        1 TEMP              0 ****  ****    0 ROOT

########## Name:	7	3205.39  0.333835
@<TRIPOS>MOLECULE
af2_protein.mol27	
 42 44 1 0 0
SMALL
GASTEIGER


@<TRIPOS>ATOM
      1 P          -8.8309   11.3616    4.5570 P.3     1  UNL1        0.0544
      2 O          -8.8853   11.7059    5.9921 O.co2   1  UNL1       -0.6615
      3 O          -9.8680   12.0416    3.7092 O.co2   1  UNL1       -0.6615
      4 O          -8.7202    9.9075    4.2954 O.co2   1  UNL1       -0.6615
      5 P          -6.7115   12.4386    2.5060 P.3     1  UNL1        0.2491
      6 O          -7.8235   13.1234    1.7824 O.co2   1  UNL1       -0.6337
      7 O          -6.0095   11.3154    1.8279 O.co2   1  UNL1       -0.6337
      8 O          -7.4145   11.9998    4.0127 O.3     1  UNL1       -0.0930
      9 O          -5.6208   13.5867    2.8839 O.3     1  UNL1       -0.2057
     10 C          -5.1487   14.4901    1.9040 C.3     1  UNL1        0.1232
     11 C          -4.5839   13.6366    0.8065 C.3     1  UNL1        0.1214
     12 O          -5.5668   13.6410   -0.2341 O.3     1  UNL1       -0.3453
     13 C          -3.2803   14.2153    0.1916 C.3     1  UNL1        0.1593
     14 O          -2.4177   13.1201   -0.2309 O.3     1  UNL1       -0.2421
     15 P          -1.7902   12.0123    0.9073 P.3     1  UNL1       -0.0004
     16 O          -0.3599   11.9932    0.5121 O.co2   1  UNL1       -0.6646
     17 O          -2.0790   12.6808    2.2017 O.co2   1  UNL1       -0.6646
     18 O          -2.5595   10.7441    0.7242 O.co2   1  UNL1       -0.6646
     19 C          -3.8368   14.9766   -1.0054 C.3     1  UNL1        0.1329
     20 O          -2.8109   15.1983   -1.9984 O.3     1  UNL1       -0.3845
     21 C          -4.8542   13.9008   -1.4337 C.3     1  UNL1        0.1668
     22 N          -5.8987   14.3165   -2.3967 N.ar    1  UNL1       -0.2855
     23 C          -5.9944   13.7876   -3.6596 C.ar    1  UNL1        0.1004
     24 N          -6.9665   14.2794   -4.3692 N.ar    1  UNL1       -0.2306
     25 C          -7.5983   15.2366   -3.5126 C.ar    1  UNL1        0.1473
     26 C          -8.7511   16.1121   -3.7031 C.ar    1  UNL1        0.1472
     27 N          -9.3947   16.2150   -4.8822 N.pl3   1  UNL1       -0.3413
     28 N          -9.1199   16.8928   -2.6535 N.ar    1  UNL1       -0.2188
     29 C          -8.3902   16.8208   -1.5306 C.ar    1  UNL1        0.1205
     30 N          -7.3038   16.0723   -1.2211 N.ar    1  UNL1       -0.2159
     31 C          -6.9459   15.2693   -2.2849 C.ar    1  UNL1        0.1674
     32 H          -5.9671   15.1029    1.5261 H       1  UNL1        0.0631
     33 H          -4.3686   15.1246    2.3244 H       1  UNL1        0.0631
     34 H          -4.4155   12.6210    1.1646 H       1  UNL1        0.0650
     35 H          -2.7703   14.8811    0.8877 H       1  UNL1        0.0694
     36 H          -4.3247   15.9048   -0.7080 H       1  UNL1        0.0667
     37 H          -4.3434   13.0030   -1.7818 H       1  UNL1        0.0866
     38 H          -5.3212   13.0292   -4.0313 H       1  UNL1        0.1030
     39 H          -8.7261   17.4712   -0.7366 H       1  UNL1        0.1048
     40 H         -10.0010   15.4697   -5.1935 H       1  UNL1        0.1438
     41 H          -9.2707   17.0376   -5.4550 H       1  UNL1        0.1438
     42 H          -3.2121   15.2408   -2.8696 H       1  UNL1        0.2101
@<TRIPOS>BOND
     1     1     2    1
     2     1     3    1
     3     1     4    1
     4     1     8    1
     5     5     6    1
     6     5     7    1
     7     5     8    1
     8     5     9    1
     9     9    10    1
    10    10    11    1
    11    11    12    1
    12    11    13    1
    13    12    21    1
    14    13    14    1
    15    13    19    1
    16    14    15    1
    17    15    16    1
    18    15    17    1
    19    15    18    1
    20    19    20    1
    21    19    21    1
    22    21    22    1
    23    22    23   ar
    24    22    31   ar
    25    23    24   ar
    26    24    25   ar
    27    25    26   ar
    28    25    31   ar
    29    26    27    1
    30    26    28   ar
    31    28    29   ar
    32    29    30   ar
    33    30    31   ar
    34    32    10    1
    35    33    10    1
    36    11    34    1
    37    13    35    1
    38    19    36    1
    39    21    37    1
    40    38    23    1
    41    39    29    1
    42    40    27    1
    43    41    27    1
    44    42    20    1
@<TRIPOS>SUBSTRUCTURE
     1 UNL1        1 TEMP              0 ****  ****    0 ROOT

########## Name:	8	2625.64  0.34493
@<TRIPOS>MOLECULE
af2_protein.mol28	
 42 44 1 0 0
SMALL
GASTEIGER


@<TRIPOS>ATOM
      1 P          -0.9624   13.1001    4.4311 P.3     1  UNL1        0.0544
      2 O          -0.9674   12.3456    5.7006 O.co2   1  UNL1       -0.6615
      3 O          -0.4551   12.3295    3.2455 O.co2   1  UNL1       -0.6615
      4 O          -0.3763   14.4560    4.5443 O.co2   1  UNL1       -0.6615
      5 P          -3.4941   13.7534    2.6925 P.3     1  UNL1        0.2491
      6 O          -2.9138   12.9077    1.6075 O.co2   1  UNL1       -0.6337
      7 O          -3.6165   15.2183    2.4613 O.co2   1  UNL1       -0.6337
      8 O          -2.5491   13.3522    4.0719 O.3     1  UNL1       -0.0930
      9 O          -4.9700   13.1491    3.0195 O.3     1  UNL1       -0.2057
     10 C          -5.8966   12.8952    1.9820 C.3     1  UNL1        0.1232
     11 C          -6.0634   14.2005    1.2609 C.3     1  UNL1        0.1214
     12 O          -5.2916   14.0830    0.0611 O.3     1  UNL1       -0.3453
     13 C          -7.5284   14.4748    0.8244 C.3     1  UNL1        0.1593
     14 O          -7.7841   15.9084    0.8637 O.3     1  UNL1       -0.2421
     15 P          -7.7043   16.7706    2.3357 P.3     1  UNL1       -0.0004
     16 O          -8.9732   17.5377    2.2736 O.co2   1  UNL1       -0.6646
     17 O          -7.6729   15.6825    3.3461 O.co2   1  UNL1       -0.6646
     18 O          -6.4349   17.5581    2.2907 O.co2   1  UNL1       -0.6646
     19 C          -7.5071   13.9543   -0.6077 C.3     1  UNL1        0.1329
     20 O          -8.5875   14.5235   -1.3799 O.3     1  UNL1       -0.3845
     21 C          -6.1340   14.5454   -0.9835 C.3     1  UNL1        0.1668
     22 N          -5.5014   14.0299   -2.2186 N.ar    1  UNL1       -0.2855
     23 C          -5.2627   14.8212   -3.3143 C.ar    1  UNL1        0.1004
     24 N          -4.7099   14.1957   -4.3110 N.ar    1  UNL1       -0.2306
     25 C          -4.5542   12.8470   -3.8568 C.ar    1  UNL1        0.1473
     26 C          -3.9882   11.6590   -4.4892 C.ar    1  UNL1        0.1472
     27 N          -3.5710   11.6502   -5.7702 N.pl3   1  UNL1       -0.3413
     28 N          -3.9608   10.5160   -3.7544 N.ar    1  UNL1       -0.2188
     29 C          -4.4726   10.5538   -2.5153 C.ar    1  UNL1        0.1205
     30 N          -5.0327   11.5690   -1.8139 N.ar    1  UNL1       -0.2159
     31 C          -5.0408   12.7304   -2.5594 C.ar    1  UNL1        0.1674
     32 H          -5.5099   12.1334    1.3050 H       1  UNL1        0.0631
     33 H          -6.8500   12.5744    2.4017 H       1  UNL1        0.0631
     34 H          -5.6902   15.0219    1.8726 H       1  UNL1        0.0650
     35 H          -8.2396   13.9242    1.4400 H       1  UNL1        0.0694
     36 H          -7.5072   12.8650   -0.6462 H       1  UNL1        0.0667
     37 H          -6.1726   15.6347   -0.9951 H       1  UNL1        0.0866
     38 H          -5.5121   15.8716   -3.3457 H       1  UNL1        0.1030
     39 H          -4.4312    9.6136   -1.9856 H       1  UNL1        0.1048
     40 H          -2.7067   12.1075   -6.0232 H       1  UNL1        0.1438
     41 H          -4.1226   11.1864   -6.4778 H       1  UNL1        0.1438
     42 H          -8.3278   14.5781   -2.3025 H       1  UNL1        0.2101
@<TRIPOS>BOND
     1     1     2    1
     2     1     3    1
     3     1     4    1
     4     1     8    1
     5     5     6    1
     6     5     7    1
     7     5     8    1
     8     5     9    1
     9     9    10    1
    10    10    11    1
    11    11    12    1
    12    11    13    1
    13    12    21    1
    14    13    14    1
    15    13    19    1
    16    14    15    1
    17    15    16    1
    18    15    17    1
    19    15    18    1
    20    19    20    1
    21    19    21    1
    22    21    22    1
    23    22    23   ar
    24    22    31   ar
    25    23    24   ar
    26    24    25   ar
    27    25    26   ar
    28    25    31   ar
    29    26    27    1
    30    26    28   ar
    31    28    29   ar
    32    29    30   ar
    33    30    31   ar
    34    32    10    1
    35    33    10    1
    36    11    34    1
    37    13    35    1
    38    19    36    1
    39    21    37    1
    40    38    23    1
    41    39    29    1
    42    40    27    1
    43    41    27    1
    44    42    20    1
@<TRIPOS>SUBSTRUCTURE
     1 UNL1        1 TEMP              0 ****  ****    0 ROOT

########## Name:	9	3148.82  0.335466
@<TRIPOS>MOLECULE
af2_protein.mol29	
 42 44 1 0 0
SMALL
GASTEIGER


@<TRIPOS>ATOM
      1 P          -1.7507   10.7476   -2.3254 P.3     1  UNL1        0.0544
      2 O          -1.3052    9.4948   -1.6827 O.co2   1  UNL1       -0.6615
      3 O          -3.1231   10.6868   -2.9335 O.co2   1  UNL1       -0.6615
      4 O          -0.7378   11.3520   -3.2218 O.co2   1  UNL1       -0.6615
      5 P          -2.7330   13.3189   -0.8147 P.3     1  UNL1        0.2491
      6 O          -4.0768   13.1162   -1.4330 O.co2   1  UNL1       -0.6337
      7 O          -1.9380   14.5097   -1.2200 O.co2   1  UNL1       -0.6337
      8 O          -1.9260   11.8264   -1.0945 O.3     1  UNL1       -0.0930
      9 O          -2.9601   13.3638    0.7967 O.3     1  UNL1       -0.2057
     10 C          -3.9464   14.2008    1.3677 C.3     1  UNL1        0.1232
     11 C          -3.6250   15.5870    0.8913 C.3     1  UNL1        0.1214
     12 O          -4.5616   15.8653   -0.1548 O.3     1  UNL1       -0.3453
     13 C          -3.8375   16.6726    1.9814 C.3     1  UNL1        0.1593
     14 O          -2.8678   17.7432    1.7928 O.3     1  UNL1       -0.2421
     15 P          -1.1932   17.4419    1.9396 P.3     1  UNL1       -0.0004
     16 O          -0.7897   18.5608    2.8271 O.co2   1  UNL1       -0.6646
     17 O          -1.1610   16.0957    2.5660 O.co2   1  UNL1       -0.6646
     18 O          -0.6437   17.4491    0.5497 O.co2   1  UNL1       -0.6646
     19 C          -5.2505   17.1401    1.6543 C.3     1  UNL1        0.1329
     20 O          -5.4993   18.4538    2.2020 O.3     1  UNL1       -0.3845
     21 C          -5.0734   17.1597    0.1231 C.3     1  UNL1        0.1668
     22 N          -6.3073   17.2473   -0.6898 N.ar    1  UNL1       -0.2855
     23 C          -6.5876   18.3214   -1.4971 C.ar    1  UNL1        0.1004
     24 N          -7.7206   18.2301   -2.1282 N.ar    1  UNL1       -0.2306
     25 C          -8.2705   16.9745   -1.7154 C.ar    1  UNL1        0.1473
     26 C          -9.5048   16.2805   -2.0713 C.ar    1  UNL1        0.1472
     27 N         -10.4465   16.8363   -2.8583 N.pl3   1  UNL1       -0.3413
     28 N          -9.7147   15.0588   -1.5141 N.ar    1  UNL1       -0.2188
     29 C          -8.7894   14.5888   -0.6646 C.ar    1  UNL1        0.1205
     30 N          -7.6182   15.1217   -0.2398 N.ar    1  UNL1       -0.2159
     31 C          -7.4031   16.3538   -0.8231 C.ar    1  UNL1        0.1674
     32 H          -4.9393   13.9034    1.0302 H       1  UNL1        0.0631
     33 H          -3.8915   14.1562    2.4554 H       1  UNL1        0.0631
     34 H          -2.6054   15.6292    0.5081 H       1  UNL1        0.0650
     35 H          -3.7776   16.2503    2.9844 H       1  UNL1        0.0694
     36 H          -6.0029   16.4171    1.9691 H       1  UNL1        0.0667
     37 H          -4.3602   17.9289   -0.1733 H       1  UNL1        0.0866
     38 H          -5.9250   19.1681   -1.5991 H       1  UNL1        0.1030
     39 H          -9.0170   13.6190   -0.2474 H       1  UNL1        0.1048
     40 H         -10.2906   16.9166   -3.8529 H       1  UNL1        0.1438
     41 H         -11.3084   17.1730   -2.4535 H       1  UNL1        0.1438
     42 H          -6.1390   18.9137    1.6534 H       1  UNL1        0.2101
@<TRIPOS>BOND
     1     1     2    1
     2     1     3    1
     3     1     4    1
     4     1     8    1
     5     5     6    1
     6     5     7    1
     7     5     8    1
     8     5     9    1
     9     9    10    1
    10    10    11    1
    11    11    12    1
    12    11    13    1
    13    12    21    1
    14    13    14    1
    15    13    19    1
    16    14    15    1
    17    15    16    1
    18    15    17    1
    19    15    18    1
    20    19    20    1
    21    19    21    1
    22    21    22    1
    23    22    23   ar
    24    22    31   ar
    25    23    24   ar
    26    24    25   ar
    27    25    26   ar
    28    25    31   ar
    29    26    27    1
    30    26    28   ar
    31    28    29   ar
    32    29    30   ar
    33    30    31   ar
    34    32    10    1
    35    33    10    1
    36    11    34    1
    37    13    35    1
    38    19    36    1
    39    21    37    1
    40    38    23    1
    41    39    29    1
    42    40    27    1
    43    41    27    1
    44    42    20    1
@<TRIPOS>SUBSTRUCTURE
     1 UNL1        1 TEMP              0 ****  ****    0 ROOT

########## Name:	10	2722.54  0.290699
@<TRIPOS>MOLECULE
af2_protein.mol210	
 42 44 1 0 0
SMALL
GASTEIGER


@<TRIPOS>ATOM
      1 P          -9.8887   17.4934    1.3810 P.3     1  UNL1        0.0544
      2 O         -11.2916   17.0635    1.5481 O.co2   1  UNL1       -0.6615
      3 O          -9.0321   17.3277    2.6041 O.co2   1  UNL1       -0.6615
      4 O          -9.7430   18.8200    0.7377 O.co2   1  UNL1       -0.6615
      5 P          -7.6689   15.9002   -0.1660 P.3     1  UNL1        0.2491
      6 O          -6.9388   15.7466    1.1272 O.co2   1  UNL1       -0.6337
      7 O          -7.0566   16.7401   -1.2309 O.co2   1  UNL1       -0.6337
      8 O          -9.2347   16.4281    0.3099 O.3     1  UNL1       -0.0930
      9 O          -7.9051   14.4000   -0.7524 O.3     1  UNL1       -0.2057
     10 C          -6.8352   13.4801   -0.8450 C.3     1  UNL1        0.1232
     11 C          -5.7889   14.1600   -1.6784 C.3     1  UNL1        0.1214
     12 O          -4.7937   14.6164   -0.7563 O.3     1  UNL1       -0.3453
     13 C          -5.0744   13.1982   -2.6666 C.3     1  UNL1        0.1593
     14 O          -4.7074   13.9289   -3.8721 O.3     1  UNL1       -0.2421
     15 P          -5.9055   14.6152   -4.8772 P.3     1  UNL1       -0.0004
     16 O          -5.4535   14.1385   -6.2079 O.co2   1  UNL1       -0.6646
     17 O          -7.1515   13.9857   -4.3705 O.co2   1  UNL1       -0.6646
     18 O          -5.8597   16.0894   -4.6355 O.co2   1  UNL1       -0.6646
     19 C          -3.8432   12.8111   -1.8562 C.3     1  UNL1        0.1329
     20 O          -2.7931   12.3169   -2.7169 O.3     1  UNL1       -0.3845
     21 C          -3.5478   14.2221   -1.3104 C.3     1  UNL1        0.1668
     22 N          -2.5986   14.3140   -0.1783 N.ar    1  UNL1       -0.2855
     23 C          -1.3886   14.9544   -0.2764 C.ar    1  UNL1        0.1004
     24 N          -0.6825   14.9258    0.8148 N.ar    1  UNL1       -0.2306
     25 C          -1.4833   14.1969    1.7511 C.ar    1  UNL1        0.1473
     26 C          -1.2700   13.8331    3.1490 C.ar    1  UNL1        0.1472
     27 N          -0.1145   14.0852    3.7942 N.pl3   1  UNL1       -0.3413
     28 N          -2.2665   13.1521    3.7738 N.ar    1  UNL1       -0.2188
     29 C          -3.3599   12.8447    3.0607 C.ar    1  UNL1        0.1205
     30 N          -3.6840   13.1048    1.7708 N.ar    1  UNL1       -0.2159
     31 C          -2.6757   13.8118    1.1479 C.ar    1  UNL1        0.1674
     32 H          -6.4430   13.2521    0.1462 H       1  UNL1        0.0631
     33 H          -7.1690   12.5656   -1.3353 H       1  UNL1        0.0631
     34 H          -6.2218   15.0032   -2.2167 H       1  UNL1        0.0650
     35 H          -5.6914   12.3297   -2.8970 H       1  UNL1        0.0694
     36 H          -4.0836   12.1071   -1.0596 H       1  UNL1        0.0667
     37 H          -3.2536   14.8942   -2.1166 H       1  UNL1        0.0866
     38 H          -1.0526   15.4396   -1.1810 H       1  UNL1        0.1030
     39 H          -4.1111   12.2953    3.6085 H       1  UNL1        0.1048
     40 H           0.1087   15.0275    4.0811 H       1  UNL1        0.1438
     41 H           0.5287   13.3317    3.9910 H       1  UNL1        0.1438
     42 H          -1.9391   12.5066   -2.3217 H       1  UNL1        0.2101
@<TRIPOS>BOND
     1     1     2    1
     2     1     3    1
     3     1     4    1
     4     1     8    1
     5     5     6    1
     6     5     7    1
     7     5     8    1
     8     5     9    1
     9     9    10    1
    10    10    11    1
    11    11    12    1
    12    11    13    1
    13    12    21    1
    14    13    14    1
    15    13    19    1
    16    14    15    1
    17    15    16    1
    18    15    17    1
    19    15    18    1
    20    19    20    1
    21    19    21    1
    22    21    22    1
    23    22    23   ar
    24    22    31   ar
    25    23    24   ar
    26    24    25   ar
    27    25    26   ar
    28    25    31   ar
    29    26    27    1
    30    26    28   ar
    31    28    29   ar
    32    29    30   ar
    33    30    31   ar
    34    32    10    1
    35    33    10    1
    36    11    34    1
    37    13    35    1
    38    19    36    1
    39    21    37    1
    40    38    23    1
    41    39    29    1
    42    40    27    1
    43    41    27    1
    44    42    20    1
@<TRIPOS>SUBSTRUCTURE
     1 UNL1        1 TEMP              0 ****  ****    0 ROOT

########## Name:	11	3291.87  0.305372
@<TRIPOS>MOLECULE
af2_protein.mol211	
 42 44 1 0 0
SMALL
GASTEIGER


@<TRIPOS>ATOM
      1 P          -2.3125   17.6838    3.8717 P.3     1  UNL1        0.0544
      2 O          -0.9039   18.0847    3.6816 O.co2   1  UNL1       -0.6615
      3 O          -3.3146   18.7735    3.6162 O.co2   1  UNL1       -0.6615
      4 O          -2.5582   16.9440    5.1315 O.co2   1  UNL1       -0.6615
      5 P          -3.9890   15.9264    1.8817 P.3     1  UNL1        0.2491
      6 O          -4.8806   17.1035    1.6613 O.co2   1  UNL1       -0.6337
      7 O          -4.5486   14.7316    2.5699 O.co2   1  UNL1       -0.6337
      8 O          -2.6178   16.5962    2.6742 O.3     1  UNL1       -0.0930
      9 O          -3.4350   15.4771    0.4183 O.3     1  UNL1       -0.2057
     10 C          -4.3221   15.2840   -0.6657 C.3     1  UNL1        0.1232
     11 C          -5.3168   14.2630   -0.1968 C.3     1  UNL1        0.1214
     12 O          -6.5029   14.9961    0.1271 O.3     1  UNL1       -0.3453
     13 C          -5.7102   13.2417   -1.2988 C.3     1  UNL1        0.1593
     14 O          -5.9916   11.9515   -0.6838 O.3     1  UNL1       -0.2421
     15 P          -4.7708   11.0951    0.1486 P.3     1  UNL1       -0.0004
     16 O          -4.9292    9.7444   -0.4456 O.co2   1  UNL1       -0.6646
     17 O          -3.5378   11.8203   -0.2507 O.co2   1  UNL1       -0.6646
     18 O          -5.0810   11.2343    1.6041 O.co2   1  UNL1       -0.6646
     19 C          -6.9787   13.8823   -1.8491 C.3     1  UNL1        0.1329
     20 O          -7.7915   12.9075   -2.5395 O.3     1  UNL1       -0.3845
     21 C          -7.5702   14.2884   -0.4848 C.3     1  UNL1        0.1668
     22 N          -8.6882   15.2585   -0.5048 N.ar    1  UNL1       -0.2855
     23 C          -9.9518   14.9412   -0.0733 C.ar    1  UNL1        0.1004
     24 N         -10.8077   15.9146   -0.1742 N.ar    1  UNL1       -0.2306
     25 C         -10.0611   17.0037   -0.7273 C.ar    1  UNL1        0.1473
     26 C         -10.4326   18.3742   -1.0671 C.ar    1  UNL1        0.1472
     27 N         -11.7000   18.8230   -0.9813 N.pl3   1  UNL1       -0.3413
     28 N          -9.4537   19.1820   -1.5532 N.ar    1  UNL1       -0.2188
     29 C          -8.2276   18.6604   -1.7064 C.ar    1  UNL1        0.1205
     30 N          -7.7491   17.4195   -1.4466 N.ar    1  UNL1       -0.2159
     31 C          -8.7439   16.6102   -0.9368 C.ar    1  UNL1        0.1674
     32 H          -4.8253   16.2180   -0.9162 H       1  UNL1        0.0631
     33 H          -3.7785   14.9073   -1.5320 H       1  UNL1        0.0631
     34 H          -4.9400   13.7434    0.6842 H       1  UNL1        0.0650
     35 H          -4.9381   13.1608   -2.0639 H       1  UNL1        0.0694
     36 H          -6.7607   14.7485   -2.4738 H       1  UNL1        0.0667
     37 H          -7.8343   13.4068    0.0994 H       1  UNL1        0.0866
     38 H         -10.2124   13.9680    0.3160 H       1  UNL1        0.1030
     39 H          -7.4961   19.3475   -2.1053 H       1  UNL1        0.1048
     40 H         -12.1082   19.0137   -0.0774 H       1  UNL1        0.1438
     41 H         -12.2420   18.9686   -1.8210 H       1  UNL1        0.1438
     42 H          -8.7160   13.1584   -2.4758 H       1  UNL1        0.2101
@<TRIPOS>BOND
     1     1     2    1
     2     1     3    1
     3     1     4    1
     4     1     8    1
     5     5     6    1
     6     5     7    1
     7     5     8    1
     8     5     9    1
     9     9    10    1
    10    10    11    1
    11    11    12    1
    12    11    13    1
    13    12    21    1
    14    13    14    1
    15    13    19    1
    16    14    15    1
    17    15    16    1
    18    15    17    1
    19    15    18    1
    20    19    20    1
    21    19    21    1
    22    21    22    1
    23    22    23   ar
    24    22    31   ar
    25    23    24   ar
    26    24    25   ar
    27    25    26   ar
    28    25    31   ar
    29    26    27    1
    30    26    28   ar
    31    28    29   ar
    32    29    30   ar
    33    30    31   ar
    34    32    10    1
    35    33    10    1
    36    11    34    1
    37    13    35    1
    38    19    36    1
    39    21    37    1
    40    38    23    1
    41    39    29    1
    42    40    27    1
    43    41    27    1
    44    42    20    1
@<TRIPOS>SUBSTRUCTURE
     1 UNL1        1 TEMP              0 ****  ****    0 ROOT

########## Name:	12	2977.27  0.350898
@<TRIPOS>MOLECULE
af2_protein.mol212	
 42 44 1 0 0
SMALL
GASTEIGER


@<TRIPOS>ATOM
      1 P          -2.5089   15.0755   -5.3315 P.3     1  UNL1        0.0544
      2 O          -1.6423   14.0479   -5.9430 O.co2   1  UNL1       -0.6615
      3 O          -3.9608   14.9738   -5.7037 O.co2   1  UNL1       -0.6615
      4 O          -1.9706   16.4516   -5.4386 O.co2   1  UNL1       -0.6615
      5 P          -3.4657   15.1048   -2.3411 P.3     1  UNL1        0.2491
      6 O          -4.8658   14.9388   -2.8326 O.co2   1  UNL1       -0.6337
      7 O          -3.0941   16.3833   -1.6767 O.co2   1  UNL1       -0.6337
      8 O          -2.5038   14.7419   -3.7195 O.3     1  UNL1       -0.0930
      9 O          -3.1817   13.8766   -1.3109 O.3     1  UNL1       -0.2057
     10 C          -4.0872   13.5819   -0.2656 C.3     1  UNL1        0.1232
     11 C          -4.2166   14.8499    0.5262 C.3     1  UNL1        0.1214
     12 O          -5.4693   15.4240    0.1383 O.3     1  UNL1       -0.3453
     13 C          -4.2915   14.6088    2.0586 C.3     1  UNL1        0.1593
     14 O          -3.6658   15.7250    2.7547 O.3     1  UNL1       -0.2421
     15 P          -2.0047   16.0637    2.5479 P.3     1  UNL1       -0.0004
     16 O          -1.5778   16.2169    3.9609 O.co2   1  UNL1       -0.6646
     17 O          -1.5080   14.8408    1.8670 O.co2   1  UNL1       -0.6646
     18 O          -1.9307   17.2805    1.6832 O.co2   1  UNL1       -0.6646
     19 C          -5.7996   14.5941    2.2771 C.3     1  UNL1        0.1329
     20 O          -6.1236   14.8655    3.6588 O.3     1  UNL1       -0.3845
     21 C          -6.1179   15.7828    1.3488 C.3     1  UNL1        0.1668
     22 N          -7.5352   15.9671    0.9634 N.ar    1  UNL1       -0.2855
     23 C          -8.2639   17.0718    1.3273 C.ar    1  UNL1        0.1004
     24 N          -9.4947   17.0578    0.9085 N.ar    1  UNL1       -0.2306
     25 C          -9.6234   15.8270    0.1888 C.ar    1  UNL1        0.1473
     26 C         -10.7408   15.2264   -0.5339 C.ar    1  UNL1        0.1472
     27 N         -11.9729   15.7713   -0.5438 N.pl3   1  UNL1       -0.3413
     28 N         -10.5156   14.0362   -1.1503 N.ar    1  UNL1       -0.2188
     29 C          -9.2965   13.4896   -1.0338 C.ar    1  UNL1        0.1205
     30 N          -8.1836   13.9234   -0.3938 N.ar    1  UNL1       -0.2159
     31 C          -8.4143   15.1405    0.2145 C.ar    1  UNL1        0.1674
     32 H          -5.0545   13.2871   -0.6724 H       1  UNL1        0.0631
     33 H          -3.6871   12.7866    0.3633 H       1  UNL1        0.0631
     34 H          -3.3985   15.5301    0.2892 H       1  UNL1        0.0650
     35 H          -3.8373   13.6579    2.3371 H       1  UNL1        0.0694
     36 H          -6.2541   13.6680    1.9253 H       1  UNL1        0.0667
     37 H          -5.7033   16.7077    1.7498 H       1  UNL1        0.0866
     38 H          -7.8511   17.8818    1.9103 H       1  UNL1        0.1030
     39 H          -9.1822   12.5405   -1.5363 H       1  UNL1        0.1048
     40 H         -12.1554   16.5977   -1.0950 H       1  UNL1        0.1438
     41 H         -12.7142   15.3533    0.0001 H       1  UNL1        0.1438
     42 H          -6.9815   15.2934    3.7085 H       1  UNL1        0.2101
@<TRIPOS>BOND
     1     1     2    1
     2     1     3    1
     3     1     4    1
     4     1     8    1
     5     5     6    1
     6     5     7    1
     7     5     8    1
     8     5     9    1
     9     9    10    1
    10    10    11    1
    11    11    12    1
    12    11    13    1
    13    12    21    1
    14    13    14    1
    15    13    19    1
    16    14    15    1
    17    15    16    1
    18    15    17    1
    19    15    18    1
    20    19    20    1
    21    19    21    1
    22    21    22    1
    23    22    23   ar
    24    22    31   ar
    25    23    24   ar
    26    24    25   ar
    27    25    26   ar
    28    25    31   ar
    29    26    27    1
    30    26    28   ar
    31    28    29   ar
    32    29    30   ar
    33    30    31   ar
    34    32    10    1
    35    33    10    1
    36    11    34    1
    37    13    35    1
    38    19    36    1
    39    21    37    1
    40    38    23    1
    41    39    29    1
    42    40    27    1
    43    41    27    1
    44    42    20    1
@<TRIPOS>SUBSTRUCTURE
     1 UNL1        1 TEMP              0 ****  ****    0 ROOT

########## Name:	13	3187.51  0.343978
@<TRIPOS>MOLECULE
af2_protein.mol213	
 42 44 1 0 0
SMALL
GASTEIGER


@<TRIPOS>ATOM
      1 P          -9.7635   15.5277   -4.4181 P.3     1  UNL1        0.0544
      2 O         -11.0219   14.9333   -4.9122 O.co2   1  UNL1       -0.6615
      3 O          -9.9223   16.4369   -3.2327 O.co2   1  UNL1       -0.6615
      4 O          -8.9131   16.1005   -5.4874 O.co2   1  UNL1       -0.6615
      5 P          -7.5760   14.0240   -2.7408 P.3     1  UNL1        0.2491
      6 O          -7.8690   14.9513   -1.6079 O.co2   1  UNL1       -0.6337
      7 O          -6.2461   14.1107   -3.4027 O.co2   1  UNL1       -0.6337
      8 O          -8.8957   14.2646   -3.8166 O.3     1  UNL1       -0.0930
      9 O          -7.7822   12.5117   -2.1744 O.3     1  UNL1       -0.2057
     10 C          -7.1695   12.0983   -0.9690 C.3     1  UNL1        0.1232
     11 C          -5.7009   12.3421   -1.1580 C.3     1  UNL1        0.1214
     12 O          -5.4092   13.5403   -0.4311 O.3     1  UNL1       -0.3453
     13 C          -4.8123   11.2232   -0.5493 C.3     1  UNL1        0.1593
     14 O          -3.6067   11.0726   -1.3531 O.3     1  UNL1       -0.2421
     15 P          -3.7002   10.5781   -2.9850 P.3     1  UNL1       -0.0004
     16 O          -2.6694    9.5107   -3.0079 O.co2   1  UNL1       -0.6646
     17 O          -5.1030   10.1040   -3.0990 O.co2   1  UNL1       -0.6646
     18 O          -3.4303   11.7967   -3.8072 O.co2   1  UNL1       -0.6646
     19 C          -4.4963   11.8151    0.8189 C.3     1  UNL1        0.1329
     20 O          -3.3145   11.2059    1.3845 O.3     1  UNL1       -0.3845
     21 C          -4.2444   13.2544    0.3279 C.3     1  UNL1        0.1668
     22 N          -4.2113   14.3149    1.3601 N.ar    1  UNL1       -0.2855
     23 C          -3.0839   15.0491    1.6317 C.ar    1  UNL1        0.1004
     24 N          -3.2378   15.9290    2.5764 N.ar    1  UNL1       -0.2306
     25 C          -4.5998   15.7856    2.9930 C.ar    1  UNL1        0.1473
     26 C          -5.3964   16.4848    3.9972 C.ar    1  UNL1        0.1472
     27 N          -4.8684   17.4046    4.8280 N.pl3   1  UNL1       -0.3413
     28 N          -6.6997   16.1202    4.1220 N.ar    1  UNL1       -0.2188
     29 C          -7.1542   15.1348    3.3340 C.ar    1  UNL1        0.1205
     30 N          -6.5335   14.4000    2.3795 N.ar    1  UNL1       -0.2159
     31 C          -5.2158   14.7876    2.2458 C.ar    1  UNL1        0.1674
     32 H          -7.5472   12.6834   -0.1304 H       1  UNL1        0.0631
     33 H          -7.3545   11.0377   -0.7994 H       1  UNL1        0.0631
     34 H          -5.4717   12.4750   -2.2153 H       1  UNL1        0.0650
     35 H          -5.3559   10.2825   -0.4628 H       1  UNL1        0.0694
     36 H          -5.3490   11.7577    1.4954 H       1  UNL1        0.0667
     37 H          -3.3542   13.2982   -0.2994 H       1  UNL1        0.0866
     38 H          -2.1507   14.9082    1.1065 H       1  UNL1        0.1030
     39 H          -8.1935   14.8836    3.4865 H       1  UNL1        0.1048
     40 H          -4.6330   18.3232    4.4804 H       1  UNL1        0.1438
     41 H          -4.7076   17.1755    5.7984 H       1  UNL1        0.1438
     42 H          -2.8731   11.8357    1.9590 H       1  UNL1        0.2101
@<TRIPOS>BOND
     1     1     2    1
     2     1     3    1
     3     1     4    1
     4     1     8    1
     5     5     6    1
     6     5     7    1
     7     5     8    1
     8     5     9    1
     9     9    10    1
    10    10    11    1
    11    11    12    1
    12    11    13    1
    13    12    21    1
    14    13    14    1
    15    13    19    1
    16    14    15    1
    17    15    16    1
    18    15    17    1
    19    15    18    1
    20    19    20    1
    21    19    21    1
    22    21    22    1
    23    22    23   ar
    24    22    31   ar
    25    23    24   ar
    26    24    25   ar
    27    25    26   ar
    28    25    31   ar
    29    26    27    1
    30    26    28   ar
    31    28    29   ar
    32    29    30   ar
    33    30    31   ar
    34    32    10    1
    35    33    10    1
    36    11    34    1
    37    13    35    1
    38    19    36    1
    39    21    37    1
    40    38    23    1
    41    39    29    1
    42    40    27    1
    43    41    27    1
    44    42    20    1
@<TRIPOS>SUBSTRUCTURE
     1 UNL1        1 TEMP              0 ****  ****    0 ROOT

########## Name:	14	3348.84  0.300883
@<TRIPOS>MOLECULE
af2_protein.mol214	
 42 44 1 0 0
SMALL
GASTEIGER


@<TRIPOS>ATOM
      1 P          -9.9588    8.7187    0.5661 P.3     1  UNL1        0.0544
      2 O         -11.3170    8.2789    0.9440 O.co2   1  UNL1       -0.6615
      3 O          -9.7890    9.0495   -0.8895 O.co2   1  UNL1       -0.6615
      4 O          -8.8807    7.8550    1.1013 O.co2   1  UNL1       -0.6615
      5 P          -8.7286   11.5451    1.1640 P.3     1  UNL1        0.2491
      6 O          -8.6690   11.7829   -0.3088 O.co2   1  UNL1       -0.6337
      7 O          -7.4499   11.4201    1.9147 O.co2   1  UNL1       -0.6337
      8 O          -9.7506   10.1703    1.3141 O.3     1  UNL1       -0.0930
      9 O          -9.5938   12.7678    1.8018 O.3     1  UNL1       -0.2057
     10 C          -9.2917   14.1126    1.4862 C.3     1  UNL1        0.1232
     11 C          -7.8505   14.3011    1.8590 C.3     1  UNL1        0.1214
     12 O          -7.1224   14.2645    0.6271 O.3     1  UNL1       -0.3453
     13 C          -7.5625   15.6830    2.5069 C.3     1  UNL1        0.1593
     14 O          -6.4882   15.5455    3.4811 O.3     1  UNL1       -0.2421
     15 P          -6.6814   14.5597    4.8622 P.3     1  UNL1       -0.0004
     16 O          -6.2038   15.4792    5.9247 O.co2   1  UNL1       -0.6646
     17 O          -8.1425   14.2934    4.8672 O.co2   1  UNL1       -0.6646
     18 O          -5.8678   13.3305    4.6156 O.co2   1  UNL1       -0.6646
     19 C          -7.1106   16.4848    1.2924 C.3     1  UNL1        0.1329
     20 O          -6.3383   17.6382    1.6935 O.3     1  UNL1       -0.3845
     21 C          -6.2399   15.3754    0.6700 C.3     1  UNL1        0.1668
     22 N          -5.8229   15.5656   -0.7375 N.ar    1  UNL1       -0.2855
     23 C          -4.5096   15.7153   -1.1070 C.ar    1  UNL1        0.1004
     24 N          -4.3328   15.8819   -2.3842 N.ar    1  UNL1       -0.2306
     25 C          -5.6493   15.8430   -2.9450 C.ar    1  UNL1        0.1473
     26 C          -6.1334   15.9516   -4.3182 C.ar    1  UNL1        0.1472
     27 N          -5.3169   16.2276   -5.3537 N.pl3   1  UNL1       -0.3413
     28 N          -7.4729   15.8359   -4.5169 N.ar    1  UNL1       -0.2188
     29 C          -8.2536   15.6532   -3.4418 C.ar    1  UNL1        0.1205
     30 N          -7.9466   15.5461   -2.1263 N.ar    1  UNL1       -0.2159
     31 C          -6.5837   15.6466   -1.9339 C.ar    1  UNL1        0.1674
     32 H          -9.4359   14.2947    0.4212 H       1  UNL1        0.0631
     33 H          -9.9208   14.7846    2.0698 H       1  UNL1        0.0631
     34 H          -7.5211   13.4977    2.5179 H       1  UNL1        0.0650
     35 H          -8.4591   16.1091    2.9570 H       1  UNL1        0.0694
     36 H          -7.9469   16.7570    0.6486 H       1  UNL1        0.0667
     37 H          -5.3785   15.1601    1.3023 H       1  UNL1        0.0866
     38 H          -3.6944   15.6962   -0.3987 H       1  UNL1        0.1030
     39 H          -9.3081   15.5786   -3.6625 H       1  UNL1        0.1048
     40 H          -4.6918   15.5175   -5.7073 H       1  UNL1        0.1438
     41 H          -5.3298   17.1448   -5.7764 H       1  UNL1        0.1438
     42 H          -5.7075   17.8571    1.0037 H       1  UNL1        0.2101
@<TRIPOS>BOND
     1     1     2    1
     2     1     3    1
     3     1     4    1
     4     1     8    1
     5     5     6    1
     6     5     7    1
     7     5     8    1
     8     5     9    1
     9     9    10    1
    10    10    11    1
    11    11    12    1
    12    11    13    1
    13    12    21    1
    14    13    14    1
    15    13    19    1
    16    14    15    1
    17    15    16    1
    18    15    17    1
    19    15    18    1
    20    19    20    1
    21    19    21    1
    22    21    22    1
    23    22    23   ar
    24    22    31   ar
    25    23    24   ar
    26    24    25   ar
    27    25    26   ar
    28    25    31   ar
    29    26    27    1
    30    26    28   ar
    31    28    29   ar
    32    29    30   ar
    33    30    31   ar
    34    32    10    1
    35    33    10    1
    36    11    34    1
    37    13    35    1
    38    19    36    1
    39    21    37    1
    40    38    23    1
    41    39    29    1
    42    40    27    1
    43    41    27    1
    44    42    20    1
@<TRIPOS>SUBSTRUCTURE
     1 UNL1        1 TEMP              0 ****  ****    0 ROOT

########## Name:	15	37466.8  0.298041
@<TRIPOS>MOLECULE
af2_protein.mol215	
 42 44 1 0 0
SMALL
GASTEIGER


@<TRIPOS>ATOM
      1 P          -5.2117   15.9092   -3.1883 P.3     1  UNL1        0.0544
      2 O          -4.8577   16.7711   -4.3341 O.co2   1  UNL1       -0.6615
      3 O          -4.4104   16.1613   -1.9428 O.co2   1  UNL1       -0.6615
      4 O          -5.3238   14.4729   -3.5335 O.co2   1  UNL1       -0.6615
      5 P          -7.7659   16.2299   -1.3905 P.3     1  UNL1        0.2491
      6 O          -6.8646   16.5298   -0.2386 O.co2   1  UNL1       -0.6337
      7 O          -8.5577   14.9703   -1.3624 O.co2   1  UNL1       -0.6337
      8 O          -6.7352   16.3631   -2.7604 O.3     1  UNL1       -0.0930
      9 O          -8.7888   17.4892   -1.5259 O.3     1  UNL1       -0.2057
     10 C          -9.4963   17.9738   -0.4016 C.3     1  UNL1        0.1232
     11 C         -10.2557   16.7965    0.1360 C.3     1  UNL1        0.1214
     12 O          -9.5247   16.3541    1.2845 O.3     1  UNL1       -0.3453
     13 C         -11.6823   17.1627    0.6288 C.3     1  UNL1        0.1593
     14 O         -12.5759   16.0345    0.4034 O.3     1  UNL1       -0.2421
     15 P         -12.8987   15.4774   -1.1784 P.3     1  UNL1       -0.0004
     16 O         -14.3791   15.3819   -1.1390 O.co2   1  UNL1       -0.6646
     17 O         -12.3586   16.5730   -2.0232 O.co2   1  UNL1       -0.6646
     18 O         -12.1423   14.1977   -1.3333 O.co2   1  UNL1       -0.6646
     19 C         -11.4290   17.3812    2.1155 C.3     1  UNL1        0.1329
     20 O         -12.6545   17.2597    2.8713 O.3     1  UNL1       -0.3845
     21 C         -10.4912   16.1731    2.3080 C.3     1  UNL1        0.1668
     22 N          -9.6982   16.1369    3.5574 N.ar    1  UNL1       -0.2855
     23 C          -9.8615   15.1626    4.5102 C.ar    1  UNL1        0.1004
     24 N          -9.0865   15.2969    5.5455 N.ar    1  UNL1       -0.2306
     25 C          -8.3182   16.4748    5.2784 C.ar    1  UNL1        0.1473
     26 C          -7.2676   17.1519    6.0331 C.ar    1  UNL1        0.1472
     27 N          -6.9014   16.7650    7.2705 N.pl3   1  UNL1       -0.3413
     28 N          -6.7071   18.2537    5.4684 N.ar    1  UNL1       -0.2188
     29 C          -7.1707   18.6522    4.2747 C.ar    1  UNL1        0.1205
     30 N          -8.1352   18.1343    3.4760 N.ar    1  UNL1       -0.2159
     31 C          -8.6874   17.0059    4.0473 C.ar    1  UNL1        0.1674
     32 H          -8.8031   18.3540    0.3488 H       1  UNL1        0.0631
     33 H         -10.1883   18.7594   -0.7047 H       1  UNL1        0.0631
     34 H         -10.3046   16.0038   -0.6106 H       1  UNL1        0.0650
     35 H         -12.0519   18.0685    0.1482 H       1  UNL1        0.0694
     36 H         -10.9221   18.3266    2.3087 H       1  UNL1        0.0667
     37 H         -11.0326   15.2376    2.1670 H       1  UNL1        0.0866
     38 H         -10.5715   14.3551    4.4088 H       1  UNL1        0.1030
     39 H          -6.6934   19.5381    3.8827 H       1  UNL1        0.1048
     40 H          -6.3509   15.9275    7.3958 H       1  UNL1        0.1438
     41 H          -7.1775   17.3124    8.0731 H       1  UNL1        0.1438
     42 H         -12.4551   16.9466    3.7566 H       1  UNL1        0.2101
@<TRIPOS>BOND
     1     1     2    1
     2     1     3    1
     3     1     4    1
     4     1     8    1
     5     5     6    1
     6     5     7    1
     7     5     8    1
     8     5     9    1
     9     9    10    1
    10    10    11    1
    11    11    12    1
    12    11    13    1
    13    12    21    1
    14    13    14    1
    15    13    19    1
    16    14    15    1
    17    15    16    1
    18    15    17    1
    19    15    18    1
    20    19    20    1
    21    19    21    1
    22    21    22    1
    23    22    23   ar
    24    22    31   ar
    25    23    24   ar
    26    24    25   ar
    27    25    26   ar
    28    25    31   ar
    29    26    27    1
    30    26    28   ar
    31    28    29   ar
    32    29    30   ar
    33    30    31   ar
    34    32    10    1
    35    33    10    1
    36    11    34    1
    37    13    35    1
    38    19    36    1
    39    21    37    1
    40    38    23    1
    41    39    29    1
    42    40    27    1
    43    41    27    1
    44    42    20    1
@<TRIPOS>SUBSTRUCTURE
     1 UNL1        1 TEMP              0 ****  ****    0 ROOT

########## Name:	16	3350.11  0.314485
@<TRIPOS>MOLECULE
af2_protein.mol216	
 42 44 1 0 0
SMALL
GASTEIGER


@<TRIPOS>ATOM
      1 P          -2.8055    8.7903   -3.8907 P.3     1  UNL1        0.0544
      2 O          -2.4479    8.7488   -5.3230 O.co2   1  UNL1       -0.6615
      3 O          -1.6586    9.0856   -2.9663 O.co2   1  UNL1       -0.6615
      4 O          -3.6358    7.6457   -3.4489 O.co2   1  UNL1       -0.6615
      5 P          -4.3237   11.1378   -2.4613 P.3     1  UNL1        0.2491
      6 O          -3.0973   11.3756   -1.6438 O.co2   1  UNL1       -0.6337
      7 O          -5.5474   10.6401   -1.7762 O.co2   1  UNL1       -0.6337
      8 O          -3.7777   10.1085   -3.7259 O.3     1  UNL1       -0.0930
      9 O          -4.6733   12.5444   -3.2026 O.3     1  UNL1       -0.2057
     10 C          -4.7403   13.7530   -2.4718 C.3     1  UNL1        0.1232
     11 C          -5.7552   13.5164   -1.3921 C.3     1  UNL1        0.1214
     12 O          -5.0037   13.2964   -0.1938 O.3     1  UNL1       -0.3453
     13 C          -6.6656   14.7468   -1.1286 C.3     1  UNL1        0.1593
     14 O          -7.9895   14.2913   -0.7264 O.3     1  UNL1       -0.2421
     15 P          -8.9603   13.3763   -1.7927 P.3     1  UNL1       -0.0004
     16 O         -10.2500   14.1020   -1.6808 O.co2   1  UNL1       -0.6646
     17 O          -8.2554   13.5371   -3.0899 O.co2   1  UNL1       -0.6646
     18 O          -8.9289   11.9709   -1.2849 O.co2   1  UNL1       -0.6646
     19 C          -5.9309   15.4088    0.0309 C.3     1  UNL1        0.1329
     20 O          -6.8118   16.2869    0.7661 O.3     1  UNL1       -0.3845
     21 C          -5.6147   14.1089    0.7967 C.3     1  UNL1        0.1668
     22 N          -4.6017   14.1982    1.8723 N.ar    1  UNL1       -0.2855
     23 C          -4.9018   13.9743    3.1928 C.ar    1  UNL1        0.1004
     24 N          -3.8894   14.1071    3.9975 N.ar    1  UNL1       -0.2306
     25 C          -2.7898   14.4549    3.1496 C.ar    1  UNL1        0.1473
     26 C          -1.3820   14.7221    3.4300 C.ar    1  UNL1        0.1472
     27 N          -0.8907   14.7730    4.6834 N.pl3   1  UNL1       -0.3413
     28 N          -0.5774   14.9964    2.3695 N.ar    1  UNL1       -0.2188
     29 C          -1.1340   15.0239    1.1497 C.ar    1  UNL1        0.1205
     30 N          -2.4104   14.8098    0.7483 N.ar    1  UNL1       -0.2159
     31 C          -3.2179   14.5144    1.8278 C.ar    1  UNL1        0.1674
     32 H          -3.7693   13.9881   -2.0359 H       1  UNL1        0.0631
     33 H          -5.0663   14.5656   -3.1209 H       1  UNL1        0.0631
     34 H          -6.3604   12.6405   -1.6260 H       1  UNL1        0.0650
     35 H          -6.7146   15.4024   -1.9980 H       1  UNL1        0.0694
     36 H          -5.0259   15.9197   -0.2976 H       1  UNL1        0.0667
     37 H          -6.5299   13.6457    1.1656 H       1  UNL1        0.0866
     38 H          -5.8923   13.7109    3.5334 H       1  UNL1        0.1030
     39 H          -0.4467   15.2569    0.3498 H       1  UNL1        0.1048
     40 H          -0.7586   13.9208    5.2092 H       1  UNL1        0.1438
     41 H          -0.6546   15.6634    5.0974 H       1  UNL1        0.1438
     42 H          -6.5296   16.3296    1.6827 H       1  UNL1        0.2101
@<TRIPOS>BOND
     1     1     2    1
     2     1     3    1
     3     1     4    1
     4     1     8    1
     5     5     6    1
     6     5     7    1
     7     5     8    1
     8     5     9    1
     9     9    10    1
    10    10    11    1
    11    11    12    1
    12    11    13    1
    13    12    21    1
    14    13    14    1
    15    13    19    1
    16    14    15    1
    17    15    16    1
    18    15    17    1
    19    15    18    1
    20    19    20    1
    21    19    21    1
    22    21    22    1
    23    22    23   ar
    24    22    31   ar
    25    23    24   ar
    26    24    25   ar
    27    25    26   ar
    28    25    31   ar
    29    26    27    1
    30    26    28   ar
    31    28    29   ar
    32    29    30   ar
    33    30    31   ar
    34    32    10    1
    35    33    10    1
    36    11    34    1
    37    13    35    1
    38    19    36    1
    39    21    37    1
    40    38    23    1
    41    39    29    1
    42    40    27    1
    43    41    27    1
    44    42    20    1
@<TRIPOS>SUBSTRUCTURE
     1 UNL1        1 TEMP              0 ****  ****    0 ROOT

########## Name:	17	3460.97  0.295747
@<TRIPOS>MOLECULE
af2_protein.mol217	
 42 44 1 0 0
SMALL
GASTEIGER


@<TRIPOS>ATOM
      1 P         -10.9722   17.0224    1.5109 P.3     1  UNL1        0.0544
      2 O         -12.2757   16.3561    1.7053 O.co2   1  UNL1       -0.6615
      3 O         -10.0697   16.9969    2.7117 O.co2   1  UNL1       -0.6615
      4 O         -11.0728   18.3593    0.8805 O.co2   1  UNL1       -0.6615
      5 P          -8.5509   15.8473   -0.1063 P.3     1  UNL1        0.2491
      6 O          -7.7732   15.8114    1.1676 O.co2   1  UNL1       -0.6337
      7 O          -8.1187   16.7885   -1.1749 O.co2   1  UNL1       -0.6337
      8 O         -10.1718   16.0940    0.4121 O.3     1  UNL1       -0.0930
      9 O          -8.5402   14.3335   -0.7052 O.3     1  UNL1       -0.2057
     10 C          -7.3308   13.6122   -0.8337 C.3     1  UNL1        0.1232
     11 C          -6.4380   14.4687   -1.6829 C.3     1  UNL1        0.1214
     12 O          -5.5134   15.0822   -0.7786 O.3     1  UNL1       -0.3453
     13 C          -5.5937   13.6521   -2.6989 C.3     1  UNL1        0.1593
     14 O          -5.3879   14.4446   -3.9037 O.3     1  UNL1       -0.2421
     15 P          -6.7108   14.9224   -4.8723 P.3     1  UNL1       -0.0004
     16 O          -6.2170   14.5411   -6.2189 O.co2   1  UNL1       -0.6646
     17 O          -7.8171   14.0838   -4.3445 O.co2   1  UNL1       -0.6646
     18 O          -6.9131   16.3805   -4.6140 O.co2   1  UNL1       -0.6646
     19 C          -4.2945   13.4763   -1.9220 C.3     1  UNL1        0.1329
     20 O          -3.1969   13.1770   -2.8128 O.3     1  UNL1       -0.3845
     21 C          -4.2325   14.9127   -1.3663 C.3     1  UNL1        0.1668
     22 N          -3.2853   15.1576   -0.2554 N.ar    1  UNL1       -0.2855
     23 C          -2.2062   15.9974   -0.3738 C.ar    1  UNL1        0.1004
     24 N          -1.4787   16.0822    0.7003 N.ar    1  UNL1       -0.2306
     25 C          -2.1187   15.2190    1.6461 C.ar    1  UNL1        0.1473
     26 C          -1.8113   14.8863    3.0341 C.ar    1  UNL1        0.1472
     27 N          -0.7006   15.3283    3.6553 N.pl3   1  UNL1       -0.3413
     28 N          -2.6600   14.0390    3.6736 N.ar    1  UNL1       -0.2188
     29 C          -3.7017   13.5536    2.9823 C.ar    1  UNL1        0.1205
     30 N          -4.0977   13.7643    1.7036 N.ar    1  UNL1       -0.2159
     31 C          -3.2418   14.6392    1.0660 C.ar    1  UNL1        0.1674
     32 H          -6.8807   13.4474    0.1453 H       1  UNL1        0.0631
     33 H          -7.5146   12.6579   -1.3271 H       1  UNL1        0.0631
     34 H          -7.0228   15.2290   -2.2007 H       1  UNL1        0.0650
     35 H          -6.0578   12.6922   -2.9254 H       1  UNL1        0.0694
     36 H          -4.3903   12.7351   -1.1286 H       1  UNL1        0.0667
     37 H          -4.0784   15.6318   -2.1708 H       1  UNL1        0.0866
     38 H          -1.9812   16.5404   -1.2800 H       1  UNL1        0.1030
     39 H          -4.3335   12.8788    3.5408 H       1  UNL1        0.1048
     40 H          -0.6355   16.2927    3.9483 H       1  UNL1        0.1438
     41 H           0.0672   14.6953    3.8280 H       1  UNL1        0.1438
     42 H          -2.3786   13.5077   -2.4352 H       1  UNL1        0.2101
@<TRIPOS>BOND
     1     1     2    1
     2     1     3    1
     3     1     4    1
     4     1     8    1
     5     5     6    1
     6     5     7    1
     7     5     8    1
     8     5     9    1
     9     9    10    1
    10    10    11    1
    11    11    12    1
    12    11    13    1
    13    12    21    1
    14    13    14    1
    15    13    19    1
    16    14    15    1
    17    15    16    1
    18    15    17    1
    19    15    18    1
    20    19    20    1
    21    19    21    1
    22    21    22    1
    23    22    23   ar
    24    22    31   ar
    25    23    24   ar
    26    24    25   ar
    27    25    26   ar
    28    25    31   ar
    29    26    27    1
    30    26    28   ar
    31    28    29   ar
    32    29    30   ar
    33    30    31   ar
    34    32    10    1
    35    33    10    1
    36    11    34    1
    37    13    35    1
    38    19    36    1
    39    21    37    1
    40    38    23    1
    41    39    29    1
    42    40    27    1
    43    41    27    1
    44    42    20    1
@<TRIPOS>SUBSTRUCTURE
     1 UNL1        1 TEMP              0 ****  ****    0 ROOT

########## Name:	18	3283.09  0.305162
@<TRIPOS>MOLECULE
af2_protein.mol218	
 42 44 1 0 0
SMALL
GASTEIGER


@<TRIPOS>ATOM
      1 P         -11.1944   17.3286    1.6586 P.3     1  UNL1        0.0544
      2 O         -12.5682   16.7909    1.7259 O.co2   1  UNL1       -0.6615
      3 O         -10.3566   17.0628    2.8769 O.co2   1  UNL1       -0.6615
      4 O         -11.1249   18.7335    1.1935 O.co2   1  UNL1       -0.6615
      5 P          -8.8366   16.0944   -0.0077 P.3     1  UNL1        0.2491
      6 O          -8.1273   15.8233    1.2778 O.co2   1  UNL1       -0.6337
      7 O          -8.2589   17.1021   -0.9379 O.co2   1  UNL1       -0.6337
      8 O         -10.4452   16.4544    0.4820 O.3     1  UNL1       -0.0930
      9 O          -8.9566   14.6699   -0.7866 O.3     1  UNL1       -0.2057
     10 C          -7.8247   13.8407   -0.9616 C.3     1  UNL1        0.1232
     11 C          -6.8085   14.6884   -1.6690 C.3     1  UNL1        0.1214
     12 O          -5.8679   15.0858   -0.6658 O.3     1  UNL1       -0.3453
     13 C          -6.0078   13.9098   -2.7483 C.3     1  UNL1        0.1593
     14 O          -5.6641   14.8117   -3.8394 O.3     1  UNL1       -0.2421
     15 P          -6.8831   15.5425   -4.7863 P.3     1  UNL1       -0.0004
     16 O          -6.3695   15.2710   -6.1520 O.co2   1  UNL1       -0.6646
     17 O          -8.0945   14.7738   -4.4027 O.co2   1  UNL1       -0.6646
     18 O          -6.9433   16.9733   -4.3584 O.co2   1  UNL1       -0.6646
     19 C          -4.7719   13.5022   -1.9554 C.3     1  UNL1        0.1329
     20 O          -3.6712   13.1918   -2.8386 O.3     1  UNL1       -0.3845
     21 C          -4.5858   14.8475   -1.2262 C.3     1  UNL1        0.1668
     22 N          -3.6711   14.8543   -0.0624 N.ar    1  UNL1       -0.2855
     23 C          -2.5056   15.5788   -0.0407 C.ar    1  UNL1        0.1004
     24 N          -1.8241   15.4560    1.0596 N.ar    1  UNL1       -0.2306
     25 C          -2.5945   14.5625    1.8705 C.ar    1  UNL1        0.1473
     26 C          -2.3888   14.0366    3.2169 C.ar    1  UNL1        0.1472
     27 N          -1.2681   14.2778    3.9247 N.pl3   1  UNL1       -0.3413
     28 N          -3.3505   13.2179    3.7190 N.ar    1  UNL1       -0.2188
     29 C          -4.4039   12.9346    2.9388 C.ar    1  UNL1        0.1205
     30 N          -4.7155   13.3369    1.6828 N.ar    1  UNL1       -0.2159
     31 C          -3.7438   14.1819    1.1863 C.ar    1  UNL1        0.1674
     32 H          -7.4405   13.5131    0.0044 H       1  UNL1        0.0631
     33 H          -8.0841   12.9772   -1.5740 H       1  UNL1        0.0631
     34 H          -7.2855   15.5640   -2.1093 H       1  UNL1        0.0650
     35 H          -6.5587   13.0401   -3.1061 H       1  UNL1        0.0694
     36 H          -4.9817   12.6876   -1.2623 H       1  UNL1        0.0667
     37 H          -4.3199   15.6353   -1.9311 H       1  UNL1        0.0866
     38 H          -2.1829   16.1970   -0.8655 H       1  UNL1        0.1030
     39 H          -5.1282   12.2719    3.3888 H       1  UNL1        0.1048
     40 H          -1.1162   15.1879    4.3355 H       1  UNL1        0.1438
     41 H          -0.5797   13.5485    4.0444 H       1  UNL1        0.1438
     42 H          -2.8413   13.3839   -2.3959 H       1  UNL1        0.2101
@<TRIPOS>BOND
     1     1     2    1
     2     1     3    1
     3     1     4    1
     4     1     8    1
     5     5     6    1
     6     5     7    1
     7     5     8    1
     8     5     9    1
     9     9    10    1
    10    10    11    1
    11    11    12    1
    12    11    13    1
    13    12    21    1
    14    13    14    1
    15    13    19    1
    16    14    15    1
    17    15    16    1
    18    15    17    1
    19    15    18    1
    20    19    20    1
    21    19    21    1
    22    21    22    1
    23    22    23   ar
    24    22    31   ar
    25    23    24   ar
    26    24    25   ar
    27    25    26   ar
    28    25    31   ar
    29    26    27    1
    30    26    28   ar
    31    28    29   ar
    32    29    30   ar
    33    30    31   ar
    34    32    10    1
    35    33    10    1
    36    11    34    1
    37    13    35    1
    38    19    36    1
    39    21    37    1
    40    38    23    1
    41    39    29    1
    42    40    27    1
    43    41    27    1
    44    42    20    1
@<TRIPOS>SUBSTRUCTURE
     1 UNL1        1 TEMP              0 ****  ****    0 ROOT

########## Name:	19	2819.7  0.294165
@<TRIPOS>MOLECULE
af2_protein.mol219	
 42 44 1 0 0
SMALL
GASTEIGER


@<TRIPOS>ATOM
      1 P         -11.1526   17.8942    2.2193 P.3     1  UNL1        0.0544
      2 O         -12.4824   17.5431    2.7571 O.co2   1  UNL1       -0.6615
      3 O         -10.0586   17.9624    3.2468 O.co2   1  UNL1       -0.6615
      4 O         -11.1676   19.0559    1.3000 O.co2   1  UNL1       -0.6615
      5 P          -9.2717   15.9616    0.6111 P.3     1  UNL1        0.2491
      6 O          -8.2872   16.0591    1.7293 O.co2   1  UNL1       -0.6337
      7 O          -8.9085   16.5486   -0.7071 O.co2   1  UNL1       -0.6337
      8 O         -10.7147   16.6151    1.2800 O.3     1  UNL1       -0.0930
      9 O          -9.5963   14.3791    0.4088 O.3     1  UNL1       -0.2057
     10 C          -8.5520   13.4334    0.2897 C.3     1  UNL1        0.1232
     11 C          -7.7134   13.9008   -0.8636 C.3     1  UNL1        0.1214
     12 O          -6.5575   14.5121   -0.2810 O.3     1  UNL1       -0.3453
     13 C          -7.2010   12.7385   -1.7574 C.3     1  UNL1        0.1593
     14 O          -7.1049   13.1961   -3.1371 O.3     1  UNL1       -0.2421
     15 P          -8.4974   13.6905   -3.9932 P.3     1  UNL1       -0.0004
     16 O          -8.3217   12.9389   -5.2607 O.co2   1  UNL1       -0.6646
     17 O          -9.5999   13.2102   -3.1216 O.co2   1  UNL1       -0.6646
     18 O          -8.4299   15.1813   -4.0759 O.co2   1  UNL1       -0.6646
     19 C          -5.8220   12.4958   -1.1561 C.3     1  UNL1        0.1329
     20 O          -4.9637   11.8089   -2.0938 O.3     1  UNL1       -0.3845
     21 C          -5.4462   13.9811   -0.9865 C.3     1  UNL1        0.1668
     22 N          -4.2852   14.2803   -0.1182 N.ar    1  UNL1       -0.2855
     23 C          -3.1337   14.8562   -0.5937 C.ar    1  UNL1        0.1004
     24 N          -2.2167   15.0351    0.3103 N.ar    1  UNL1       -0.2306
     25 C          -2.7930   14.5349    1.5215 C.ar    1  UNL1        0.1473
     26 C          -2.2885   14.4614    2.8897 C.ar    1  UNL1        0.1472
     27 N          -1.0294   14.8118    3.2166 N.pl3   1  UNL1       -0.3413
     28 N          -3.1214   13.9488    3.8334 N.ar    1  UNL1       -0.2188
     29 C          -4.3328   13.5286    3.4402 C.ar    1  UNL1        0.1205
     30 N          -4.9214   13.5257    2.2195 N.ar    1  UNL1       -0.2159
     31 C          -4.0770   14.0639    1.2699 C.ar    1  UNL1        0.1674
     32 H          -7.9591   13.4046    1.2039 H       1  UNL1        0.0631
     33 H          -8.9630   12.4462    0.0784 H       1  UNL1        0.0631
     34 H          -8.2638   14.6257   -1.4634 H       1  UNL1        0.0650
     35 H          -7.8362   11.8569   -1.6712 H       1  UNL1        0.0694
     36 H          -5.8793   11.9771   -0.1992 H       1  UNL1        0.0667
     37 H          -5.3376   14.4653   -1.9570 H       1  UNL1        0.0866
     38 H          -3.0011   15.1362   -1.6284 H       1  UNL1        0.1030
     39 H          -4.9442   13.1228    4.2325 H       1  UNL1        0.1048
     40 H          -0.7691   15.7871    3.2503 H       1  UNL1        0.1438
     41 H          -0.3456   14.0992    3.4278 H       1  UNL1        0.1438
     42 H          -4.0500   12.0544   -1.9310 H       1  UNL1        0.2101
@<TRIPOS>BOND
     1     1     2    1
     2     1     3    1
     3     1     4    1
     4     1     8    1
     5     5     6    1
     6     5     7    1
     7     5     8    1
     8     5     9    1
     9     9    10    1
    10    10    11    1
    11    11    12    1
    12    11    13    1
    13    12    21    1
    14    13    14    1
    15    13    19    1
    16    14    15    1
    17    15    16    1
    18    15    17    1
    19    15    18    1
    20    19    20    1
    21    19    21    1
    22    21    22    1
    23    22    23   ar
    24    22    31   ar
    25    23    24   ar
    26    24    25   ar
    27    25    26   ar
    28    25    31   ar
    29    26    27    1
    30    26    28   ar
    31    28    29   ar
    32    29    30   ar
    33    30    31   ar
    34    32    10    1
    35    33    10    1
    36    11    34    1
    37    13    35    1
    38    19    36    1
    39    21    37    1
    40    38    23    1
    41    39    29    1
    42    40    27    1
    43    41    27    1
    44    42    20    1
@<TRIPOS>SUBSTRUCTURE
     1 UNL1        1 TEMP              0 ****  ****    0 ROOT

