########## Name:	0	994.755  0.927808
@<TRIPOS>MOLECULE
af2_protein.mol20	
 42 44 1 0 0
SMALL
GASTEIGER


@<TRIPOS>ATOM
      1 P          -0.0961    9.6026   -4.1504 P.3     1  UNL1        0.0544
      2 O           0.6868    9.9759   -5.3456 O.co2   1  UNL1       -0.6615
      3 O           0.2244   10.3982   -2.9170 O.co2   1  UNL1       -0.6615
      4 O          -0.1561    8.1423   -3.9077 O.co2   1  UNL1       -0.6615
      5 P          -3.1002   10.3561   -3.6342 P.3     1  UNL1        0.2491
      6 O          -2.2319   11.2153   -2.7758 O.co2   1  UNL1       -0.6337
      7 O          -4.0381    9.4095   -2.9718 O.co2   1  UNL1       -0.6337
      8 O          -1.6454   10.0396   -4.4946 O.3     1  UNL1       -0.0930
      9 O          -3.8880   11.4457   -4.5520 O.3     1  UNL1       -0.2057
     10 C          -4.5575   12.5428   -3.9625 C.3     1  UNL1        0.1232
     11 C          -5.8408   11.9876   -3.4177 C.3     1  UNL1        0.1214
     12 O          -5.6410   11.8608   -2.0060 O.3     1  UNL1       -0.3453
     13 C          -7.0511   12.9410   -3.6136 C.3     1  UNL1        0.1593
     14 O          -8.2610   12.1528   -3.8057 O.3     1  UNL1       -0.2421
     15 P          -8.5423   11.3268   -5.2737 P.3     1  UNL1       -0.0004
     16 O          -9.9401   11.7375   -5.5563 O.co2   1  UNL1       -0.6646
     17 O          -7.5175   11.9121   -6.1752 O.co2   1  UNL1       -0.6646
     18 O          -8.3073    9.8783   -4.9901 O.co2   1  UNL1       -0.6646
     19 C          -7.0689   13.6668   -2.2737 C.3     1  UNL1        0.1329
     20 O          -8.3665   14.2494   -2.0196 O.3     1  UNL1       -0.3845
     21 C          -6.7958   12.4244   -1.4031 C.3     1  UNL1        0.1668
     22 N          -6.3933   12.6689    0.0002 N.ar    1  UNL1       -0.2855
     23 C          -7.0839   12.1549    1.0691 C.ar    1  UNL1        0.1004
     24 N          -6.5914   12.4822    2.2269 N.ar    1  UNL1       -0.2306
     25 C          -5.4548   13.2983    1.9246 C.ar    1  UNL1        0.1473
     26 C          -4.4709   13.9622    2.7749 C.ar    1  UNL1        0.1472
     27 N          -4.5654   13.9728    4.1187 N.pl3   1  UNL1       -0.3413
     28 N          -3.4738   14.6469    2.1551 N.ar    1  UNL1       -0.2188
     29 C          -3.4760   14.6828    0.8144 C.ar    1  UNL1        0.1205
     30 N          -4.3206   14.1301   -0.0897 N.ar    1  UNL1       -0.2159
     31 C          -5.3199   13.4218    0.5461 C.ar    1  UNL1        0.1674
     32 H          -3.9559   12.9682   -3.1591 H       1  UNL1        0.0631
     33 H          -4.7675   13.3021   -4.7157 H       1  UNL1        0.0631
     34 H          -6.0503   11.0135   -3.8598 H       1  UNL1        0.0650
     35 H          -6.9822   13.7520   -4.3384 H       1  UNL1        0.0694
     36 H          -6.2750   14.4134   -2.2542 H       1  UNL1        0.0667
     37 H          -7.5468   11.6363   -1.4578 H       1  UNL1        0.0866
     38 H          -7.9599   11.5328    0.9580 H       1  UNL1        0.1030
     39 H          -2.6654   15.2497    0.3810 H       1  UNL1        0.1048
     40 H          -4.3515   13.1389    4.6468 H       1  UNL1        0.1438
     41 H          -4.8504   14.8148    4.5982 H       1  UNL1        0.1438
     42 H          -8.4996   14.3342   -1.0726 H       1  UNL1        0.2101
@<TRIPOS>BOND
     1     1     2    1
     2     1     3    1
     3     1     4    1
     4     1     8    1
     5     5     6    1
     6     5     7    1
     7     5     8    1
     8     5     9    1
     9     9    10    1
    10    10    11    1
    11    11    12    1
    12    11    13    1
    13    12    21    1
    14    13    14    1
    15    13    19    1
    16    14    15    1
    17    15    16    1
    18    15    17    1
    19    15    18    1
    20    19    20    1
    21    19    21    1
    22    21    22    1
    23    22    23   ar
    24    22    31   ar
    25    23    24   ar
    26    24    25   ar
    27    25    26   ar
    28    25    31   ar
    29    26    27    1
    30    26    28   ar
    31    28    29   ar
    32    29    30   ar
    33    30    31   ar
    34    32    10    1
    35    33    10    1
    36    11    34    1
    37    13    35    1
    38    19    36    1
    39    21    37    1
    40    38    23    1
    41    39    29    1
    42    40    27    1
    43    41    27    1
    44    42    20    1
@<TRIPOS>SUBSTRUCTURE
     1 UNL1        1 TEMP              0 ****  ****    0 ROOT

########## Name:	1	1009.24  0.914528
@<TRIPOS>MOLECULE
af2_protein.mol21	
 42 44 1 0 0
SMALL
GASTEIGER


@<TRIPOS>ATOM
      1 P          -0.0480   10.2176   -4.5601 P.3     1  UNL1        0.0544
      2 O           0.5980   10.6206   -5.8256 O.co2   1  UNL1       -0.6615
      3 O           0.3273   11.0544   -3.3702 O.co2   1  UNL1       -0.6615
      4 O           0.0125    8.7611   -4.2960 O.co2   1  UNL1       -0.6615
      5 P          -3.0377   10.7803   -3.7832 P.3     1  UNL1        0.2491
      6 O          -2.2392   11.7090   -2.9293 O.co2   1  UNL1       -0.6337
      7 O          -3.8471    9.7238   -3.1175 O.co2   1  UNL1       -0.6337
      8 O          -1.6478   10.5454   -4.7679 O.3     1  UNL1       -0.0930
      9 O          -3.9663   11.8161   -4.6289 O.3     1  UNL1       -0.2057
     10 C          -4.7221   12.8150   -3.9729 C.3     1  UNL1        0.1232
     11 C          -5.8823   12.0980   -3.3473 C.3     1  UNL1        0.1214
     12 O          -5.5648   11.9849   -1.9561 O.3     1  UNL1       -0.3453
     13 C          -7.2133   12.8934   -3.4381 C.3     1  UNL1        0.1593
     14 O          -8.3263   11.9610   -3.5568 O.3     1  UNL1       -0.2421
     15 P          -8.5238   11.0096   -4.9612 P.3     1  UNL1       -0.0004
     16 O          -9.9619   11.2380   -5.2474 O.co2   1  UNL1       -0.6646
     17 O          -7.5809   11.6448   -5.9169 O.co2   1  UNL1       -0.6646
     18 O          -8.1213    9.6203   -4.5849 O.co2   1  UNL1       -0.6646
     19 C          -7.2226   13.5993   -2.0876 C.3     1  UNL1        0.1329
     20 O          -8.5604   14.0119   -1.7301 O.3     1  UNL1       -0.3845
     21 C          -6.7333   12.3934   -1.2615 C.3     1  UNL1        0.1668
     22 N          -6.2620   12.6741    0.1134 N.ar    1  UNL1       -0.2855
     23 C          -6.8778   12.1597    1.2268 C.ar    1  UNL1        0.1004
     24 N          -6.3326   12.5214    2.3503 N.ar    1  UNL1       -0.2306
     25 C          -5.2386   13.3639    1.9727 C.ar    1  UNL1        0.1473
     26 C          -4.2296   14.0705    2.7565 C.ar    1  UNL1        0.1472
     27 N          -4.2508   14.1023    4.1032 N.pl3   1  UNL1       -0.3413
     28 N          -3.2883   14.7721    2.0717 N.ar    1  UNL1       -0.2188
     29 C          -3.3648   14.7841    0.7328 C.ar    1  UNL1        0.1205
     30 N          -4.2410   14.1917   -0.1143 N.ar    1  UNL1       -0.2159
     31 C          -5.1829   13.4667    0.5870 C.ar    1  UNL1        0.1674
     32 H          -4.1206   13.3055   -3.2075 H       1  UNL1        0.0631
     33 H          -5.0801   13.5485   -4.6952 H       1  UNL1        0.0631
     34 H          -6.0007   11.1093   -3.7906 H       1  UNL1        0.0650
     35 H          -7.2445   13.6554   -4.2168 H       1  UNL1        0.0694
     36 H          -6.5098   14.4210   -2.0194 H       1  UNL1        0.0667
     37 H          -7.4627   11.5835   -1.2619 H       1  UNL1        0.0866
     38 H          -7.7399   11.5112    1.1743 H       1  UNL1        0.1030
     39 H          -2.5961   15.3661    0.2463 H       1  UNL1        0.1048
     40 H          -3.9840   13.2843    4.6321 H       1  UNL1        0.1438
     41 H          -4.5337   14.9443    4.5840 H       1  UNL1        0.1438
     42 H          -8.6585   13.9886   -0.7754 H       1  UNL1        0.2101
@<TRIPOS>BOND
     1     1     2    1
     2     1     3    1
     3     1     4    1
     4     1     8    1
     5     5     6    1
     6     5     7    1
     7     5     8    1
     8     5     9    1
     9     9    10    1
    10    10    11    1
    11    11    12    1
    12    11    13    1
    13    12    21    1
    14    13    14    1
    15    13    19    1
    16    14    15    1
    17    15    16    1
    18    15    17    1
    19    15    18    1
    20    19    20    1
    21    19    21    1
    22    21    22    1
    23    22    23   ar
    24    22    31   ar
    25    23    24   ar
    26    24    25   ar
    27    25    26   ar
    28    25    31   ar
    29    26    27    1
    30    26    28   ar
    31    28    29   ar
    32    29    30   ar
    33    30    31   ar
    34    32    10    1
    35    33    10    1
    36    11    34    1
    37    13    35    1
    38    19    36    1
    39    21    37    1
    40    38    23    1
    41    39    29    1
    42    40    27    1
    43    41    27    1
    44    42    20    1
@<TRIPOS>SUBSTRUCTURE
     1 UNL1        1 TEMP              0 ****  ****    0 ROOT

########## Name:	2	999.045  0.927478
@<TRIPOS>MOLECULE
af2_protein.mol22	
 42 44 1 0 0
SMALL
GASTEIGER


@<TRIPOS>ATOM
      1 P          -0.1319    9.8391   -4.3474 P.3     1  UNL1        0.0544
      2 O           0.5525   10.1189   -5.6258 O.co2   1  UNL1       -0.6615
      3 O           0.3104   10.6993   -3.1979 O.co2   1  UNL1       -0.6615
      4 O          -0.2010    8.3983   -4.0098 O.co2   1  UNL1       -0.6615
      5 P          -3.0639   10.7005   -3.6261 P.3     1  UNL1        0.2491
      6 O          -2.2582   11.5902   -2.7382 O.co2   1  UNL1       -0.6337
      7 O          -3.9205    9.6586   -2.9976 O.co2   1  UNL1       -0.6337
      8 O          -1.6957   10.2948   -4.5855 O.3     1  UNL1       -0.0930
      9 O          -3.8056   11.8889   -4.4555 O.3     1  UNL1       -0.2057
     10 C          -4.5056   12.9164   -3.7820 C.3     1  UNL1        0.1232
     11 C          -5.8020   12.3013   -3.3430 C.3     1  UNL1        0.1214
     12 O          -5.6796   12.1034   -1.9306 O.3     1  UNL1       -0.3453
     13 C          -7.0251   13.2339   -3.5588 C.3     1  UNL1        0.1593
     14 O          -8.1999   12.4279   -3.8623 O.3     1  UNL1       -0.2421
     15 P          -8.3473   11.6284   -5.3642 P.3     1  UNL1       -0.0004
     16 O          -9.7454   11.9735   -5.7228 O.co2   1  UNL1       -0.6646
     17 O          -7.3025   12.2904   -6.1864 O.co2   1  UNL1       -0.6646
     18 O          -8.0526   10.1870   -5.1012 O.co2   1  UNL1       -0.6646
     19 C          -7.1392   13.8857   -2.1860 C.3     1  UNL1        0.1329
     20 O          -8.4647   14.4218   -1.9778 O.3     1  UNL1       -0.3845
     21 C          -6.8820   12.6051   -1.3674 C.3     1  UNL1        0.1668
     22 N          -6.5670   12.7833    0.0679 N.ar    1  UNL1       -0.2855
     23 C          -7.3821   12.3164    1.0685 C.ar    1  UNL1        0.1004
     24 N          -6.9513   12.5732    2.2680 N.ar    1  UNL1       -0.2306
     25 C          -5.7239   13.2836    2.0727 C.ar    1  UNL1        0.1473
     26 C          -4.7505   13.8349    3.0110 C.ar    1  UNL1        0.1472
     27 N          -4.9461   13.8285    4.3439 N.pl3   1  UNL1       -0.3413
     28 N          -3.6496   14.4339    2.4853 N.ar    1  UNL1       -0.2188
     29 C          -3.5459   14.4957    1.1496 C.ar    1  UNL1        0.1205
     30 N          -4.3666   14.0431    0.1709 N.ar    1  UNL1       -0.2159
     31 C          -5.4732   13.4205    0.7117 C.ar    1  UNL1        0.1674
     32 H          -3.9627   13.3124   -2.9237 H       1  UNL1        0.0631
     33 H          -4.6932   13.7099   -4.5053 H       1  UNL1        0.0631
     34 H          -5.9591   11.3477   -3.8471 H       1  UNL1        0.0650
     35 H          -6.9152   14.0615   -4.2596 H       1  UNL1        0.0694
     36 H          -6.3650   14.6351   -2.0216 H       1  UNL1        0.0667
     37 H          -7.6966   11.8929   -1.4985 H       1  UNL1        0.0866
     38 H          -8.3010   11.7823    0.8763 H       1  UNL1        0.1030
     39 H          -2.6554   14.9916    0.7928 H       1  UNL1        0.1048
     40 H          -4.8516   12.9680    4.8642 H       1  UNL1        0.1438
     41 H          -5.1874   14.6842    4.8230 H       1  UNL1        0.1438
     42 H          -8.6749   14.4015   -1.0413 H       1  UNL1        0.2101
@<TRIPOS>BOND
     1     1     2    1
     2     1     3    1
     3     1     4    1
     4     1     8    1
     5     5     6    1
     6     5     7    1
     7     5     8    1
     8     5     9    1
     9     9    10    1
    10    10    11    1
    11    11    12    1
    12    11    13    1
    13    12    21    1
    14    13    14    1
    15    13    19    1
    16    14    15    1
    17    15    16    1
    18    15    17    1
    19    15    18    1
    20    19    20    1
    21    19    21    1
    22    21    22    1
    23    22    23   ar
    24    22    31   ar
    25    23    24   ar
    26    24    25   ar
    27    25    26   ar
    28    25    31   ar
    29    26    27    1
    30    26    28   ar
    31    28    29   ar
    32    29    30   ar
    33    30    31   ar
    34    32    10    1
    35    33    10    1
    36    11    34    1
    37    13    35    1
    38    19    36    1
    39    21    37    1
    40    38    23    1
    41    39    29    1
    42    40    27    1
    43    41    27    1
    44    42    20    1
@<TRIPOS>SUBSTRUCTURE
     1 UNL1        1 TEMP              0 ****  ****    0 ROOT

########## Name:	3	996.611  0.924005
@<TRIPOS>MOLECULE
af2_protein.mol23	
 42 44 1 0 0
SMALL
GASTEIGER


@<TRIPOS>ATOM
      1 P          -0.3696    9.6840   -4.5478 P.3     1  UNL1        0.0544
      2 O           0.2189    9.8716   -5.8892 O.co2   1  UNL1       -0.6615
      3 O           0.2238   10.5529   -3.4755 O.co2   1  UNL1       -0.6615
      4 O          -0.5013    8.2640   -4.1465 O.co2   1  UNL1       -0.6615
      5 P          -3.1633   10.7777   -3.6216 P.3     1  UNL1        0.2491
      6 O          -2.2644   11.6621   -2.8223 O.co2   1  UNL1       -0.6337
      7 O          -4.0527    9.8296   -2.8973 O.co2   1  UNL1       -0.6337
      8 O          -1.9158   10.2349   -4.6732 O.3     1  UNL1       -0.0930
      9 O          -4.0804   11.7541   -4.5467 O.3     1  UNL1       -0.2057
     10 C          -4.7697   12.8520   -3.9819 C.3     1  UNL1        0.1232
     11 C          -5.9872   12.2703   -3.3256 C.3     1  UNL1        0.1214
     12 O          -5.6868   12.2170   -1.9270 O.3     1  UNL1       -0.3453
     13 C          -7.2490   13.1631   -3.4775 C.3     1  UNL1        0.1593
     14 O          -8.4332   12.3178   -3.5505 O.3     1  UNL1       -0.2421
     15 P          -8.6429   11.2164   -4.8387 P.3     1  UNL1       -0.0004
     16 O         -10.0386   11.5242   -5.2385 O.co2   1  UNL1       -0.6646
     17 O          -7.5998   11.6464   -5.8045 O.co2   1  UNL1       -0.6646
     18 O          -8.3856    9.8572   -4.2727 O.co2   1  UNL1       -0.6646
     19 C          -7.2079   13.9486   -2.1723 C.3     1  UNL1        0.1329
     20 O          -8.5097   14.4885   -1.8536 O.3     1  UNL1       -0.3845
     21 C          -6.8218   12.7599   -1.2700 C.3     1  UNL1        0.1668
     22 N          -6.3361   13.0852    0.0900 N.ar    1  UNL1       -0.2855
     23 C          -7.0602   12.8048    1.2217 C.ar    1  UNL1        0.1004
     24 N          -6.4815   13.1708    2.3269 N.ar    1  UNL1       -0.2306
     25 C          -5.2426   13.7582    1.9153 C.ar    1  UNL1        0.1473
     26 C          -4.1372   14.3435    2.6685 C.ar    1  UNL1        0.1472
     27 N          -4.1809   14.5122    4.0044 N.pl3   1  UNL1       -0.3413
     28 N          -3.0680   14.7903    1.9585 N.ar    1  UNL1       -0.2188
     29 C          -3.1123   14.6830    0.6224 C.ar    1  UNL1        0.1205
     30 N          -4.0648   14.1790   -0.1993 N.ar    1  UNL1       -0.2159
     31 C          -5.1394   13.7110    0.5293 C.ar    1  UNL1        0.1674
     32 H          -4.1343   13.3384   -3.2417 H       1  UNL1        0.0631
     33 H          -5.0636   13.5665   -4.7507 H       1  UNL1        0.0631
     34 H          -6.1830   11.2691   -3.7095 H       1  UNL1        0.0650
     35 H          -7.1725   13.8208   -4.3432 H       1  UNL1        0.0694
     36 H          -6.4364   14.7185   -2.1771 H       1  UNL1        0.0667
     37 H          -7.6884   12.1004   -1.2232 H       1  UNL1        0.0866
     38 H          -8.0261   12.3221    1.1964 H       1  UNL1        0.1030
     39 H          -2.2389   15.0639    0.1140 H       1  UNL1        0.1048
     40 H          -4.0815   13.7159    4.6177 H       1  UNL1        0.1438
     41 H          -4.3133   15.4351    4.3927 H       1  UNL1        0.1438
     42 H          -8.6034   14.5574   -0.9006 H       1  UNL1        0.2101
@<TRIPOS>BOND
     1     1     2    1
     2     1     3    1
     3     1     4    1
     4     1     8    1
     5     5     6    1
     6     5     7    1
     7     5     8    1
     8     5     9    1
     9     9    10    1
    10    10    11    1
    11    11    12    1
    12    11    13    1
    13    12    21    1
    14    13    14    1
    15    13    19    1
    16    14    15    1
    17    15    16    1
    18    15    17    1
    19    15    18    1
    20    19    20    1
    21    19    21    1
    22    21    22    1
    23    22    23   ar
    24    22    31   ar
    25    23    24   ar
    26    24    25   ar
    27    25    26   ar
    28    25    31   ar
    29    26    27    1
    30    26    28   ar
    31    28    29   ar
    32    29    30   ar
    33    30    31   ar
    34    32    10    1
    35    33    10    1
    36    11    34    1
    37    13    35    1
    38    19    36    1
    39    21    37    1
    40    38    23    1
    41    39    29    1
    42    40    27    1
    43    41    27    1
    44    42    20    1
@<TRIPOS>SUBSTRUCTURE
     1 UNL1        1 TEMP              0 ****  ****    0 ROOT

########## Name:	4	996.554  0.933144
@<TRIPOS>MOLECULE
af2_protein.mol24	
 42 44 1 0 0
SMALL
GASTEIGER


@<TRIPOS>ATOM
      1 P          -0.3886    9.4595   -4.2565 P.3     1  UNL1        0.0544
      2 O           0.3326    9.7103   -5.5207 O.co2   1  UNL1       -0.6615
      3 O           0.0663   10.3001   -3.0976 O.co2   1  UNL1       -0.6615
      4 O          -0.5252    8.0228   -3.9217 O.co2   1  UNL1       -0.6615
      5 P          -3.3035   10.4204   -3.5938 P.3     1  UNL1        0.2491
      6 O          -2.3300   11.2509   -2.8246 O.co2   1  UNL1       -0.6337
      7 O          -4.2483    9.5535   -2.8388 O.co2   1  UNL1       -0.6337
      8 O          -1.9268    9.9807   -4.5256 O.3     1  UNL1       -0.0930
      9 O          -4.0838   11.5158   -4.5112 O.3     1  UNL1       -0.2057
     10 C          -4.6511   12.6748   -3.9330 C.3     1  UNL1        0.1232
     11 C          -5.9776   12.2426   -3.3803 C.3     1  UNL1        0.1214
     12 O          -5.7866   12.1140   -1.9675 O.3     1  UNL1       -0.3453
     13 C          -7.0983   13.2982   -3.5851 C.3     1  UNL1        0.1593
     14 O          -8.3743   12.6193   -3.7667 O.3     1  UNL1       -0.2421
     15 P          -8.6338   11.5890   -5.1037 P.3     1  UNL1       -0.0004
     16 O          -9.9456   12.0890   -5.5850 O.co2   1  UNL1       -0.6646
     17 O          -7.4777   11.9019   -5.9818 O.co2   1  UNL1       -0.6646
     18 O          -8.5966   10.1936   -4.5695 O.co2   1  UNL1       -0.6646
     19 C          -7.0479   14.0374   -2.2534 C.3     1  UNL1        0.1329
     20 O          -8.2875   14.7366   -2.0040 O.3     1  UNL1       -0.3845
     21 C          -6.8849   12.7852   -1.3694 C.3     1  UNL1        0.1668
     22 N          -6.4587   13.0082    0.0306 N.ar    1  UNL1       -0.2855
     23 C          -7.2547   12.6991    1.1052 C.ar    1  UNL1        0.1004
     24 N          -6.7201   12.9727    2.2583 N.ar    1  UNL1       -0.2306
     25 C          -5.4354   13.5217    1.9461 C.ar    1  UNL1        0.1473
     26 C          -4.3465   14.0084    2.7884 C.ar    1  UNL1        0.1472
     27 N          -4.4543   14.1023    4.1280 N.pl3   1  UNL1       -0.3413
     28 N          -3.2214   14.4425    2.1617 N.ar    1  UNL1       -0.2188
     29 C          -3.1987   14.4141    0.8211 C.ar    1  UNL1        0.1205
     30 N          -4.1276   14.0048   -0.0767 N.ar    1  UNL1       -0.2159
     31 C          -5.2600   13.5489    0.5669 C.ar    1  UNL1        0.1674
     32 H          -4.0119   13.0534   -3.1353 H       1  UNL1        0.0631
     33 H          -4.7942   13.4415   -4.6943 H       1  UNL1        0.0631
     34 H          -6.2744   11.2864   -3.8112 H       1  UNL1        0.0650
     35 H          -6.8755   13.9621   -4.4203 H       1  UNL1        0.0694
     36 H          -6.1848   14.6997   -2.1866 H       1  UNL1        0.0667
     37 H          -7.7819   12.1671   -1.4062 H       1  UNL1        0.0866
     38 H          -8.2388   12.2663    1.0018 H       1  UNL1        0.1030
     39 H          -2.2828   14.7805    0.3815 H       1  UNL1        0.1048
     40 H          -4.4244   13.2684    4.6969 H       1  UNL1        0.1438
     41 H          -4.5651   15.0069    4.5634 H       1  UNL1        0.1438
     42 H          -8.4357   14.7980   -1.0575 H       1  UNL1        0.2101
@<TRIPOS>BOND
     1     1     2    1
     2     1     3    1
     3     1     4    1
     4     1     8    1
     5     5     6    1
     6     5     7    1
     7     5     8    1
     8     5     9    1
     9     9    10    1
    10    10    11    1
    11    11    12    1
    12    11    13    1
    13    12    21    1
    14    13    14    1
    15    13    19    1
    16    14    15    1
    17    15    16    1
    18    15    17    1
    19    15    18    1
    20    19    20    1
    21    19    21    1
    22    21    22    1
    23    22    23   ar
    24    22    31   ar
    25    23    24   ar
    26    24    25   ar
    27    25    26   ar
    28    25    31   ar
    29    26    27    1
    30    26    28   ar
    31    28    29   ar
    32    29    30   ar
    33    30    31   ar
    34    32    10    1
    35    33    10    1
    36    11    34    1
    37    13    35    1
    38    19    36    1
    39    21    37    1
    40    38    23    1
    41    39    29    1
    42    40    27    1
    43    41    27    1
    44    42    20    1
@<TRIPOS>SUBSTRUCTURE
     1 UNL1        1 TEMP              0 ****  ****    0 ROOT

########## Name:	5	1020.32  0.923833
@<TRIPOS>MOLECULE
af2_protein.mol25	
 42 44 1 0 0
SMALL
GASTEIGER


@<TRIPOS>ATOM
      1 P          -3.9980    6.7070   -3.2288 P.3     1  UNL1        0.0544
      2 O          -5.3080    6.1322   -3.5956 O.co2   1  UNL1       -0.6615
      3 O          -2.8777    6.3654   -4.1698 O.co2   1  UNL1       -0.6615
      4 O          -3.6431    6.5227   -1.8023 O.co2   1  UNL1       -0.6615
      5 P          -3.1570    9.7083   -3.6076 P.3     1  UNL1        0.2491
      6 O          -1.8613   10.3868   -3.3075 O.co2   1  UNL1       -0.6337
      7 O          -3.9384    9.1392   -2.4763 O.co2   1  UNL1       -0.6337
      8 O          -4.1715    8.3332   -3.4165 O.3     1  UNL1       -0.0930
      9 O          -4.0837   10.7930   -4.3918 O.3     1  UNL1       -0.2057
     10 C          -4.2663   12.0977   -3.8783 C.3     1  UNL1        0.1232
     11 C          -5.6940   12.1552   -3.4199 C.3     1  UNL1        0.1214
     12 O          -5.6500   12.0293   -1.9947 O.3     1  UNL1       -0.3453
     13 C          -6.3803   13.5143   -3.7270 C.3     1  UNL1        0.1593
     14 O          -7.7953   13.2921   -3.9926 O.3     1  UNL1       -0.2421
     15 P          -8.2969   12.3455   -5.3226 P.3     1  UNL1       -0.0004
     16 O          -9.2588   13.2711   -5.9710 O.co2   1  UNL1       -0.6646
     17 O          -7.0279   12.1321   -6.0641 O.co2   1  UNL1       -0.6646
     18 O          -8.8546   11.0825   -4.7502 O.co2   1  UNL1       -0.6646
     19 C          -6.1722   14.2493   -2.4084 C.3     1  UNL1        0.1329
     20 O          -7.1194   15.3310   -2.2654 O.3     1  UNL1       -0.3845
     21 C          -6.4965   13.0522   -1.4930 C.3     1  UNL1        0.1668
     22 N          -6.1127   13.1786   -0.0689 N.ar    1  UNL1       -0.2855
     23 C          -6.9694   12.8729    0.9589 C.ar    1  UNL1        0.1004
     24 N          -6.4644   13.0543    2.1431 N.ar    1  UNL1       -0.2306
     25 C          -5.1350   13.5295    1.9063 C.ar    1  UNL1        0.1473
     26 C          -4.0510   13.9007    2.8112 C.ar    1  UNL1        0.1472
     27 N          -4.2056   13.9375    4.1490 N.pl3   1  UNL1       -0.3413
     28 N          -2.8756   14.2873    2.2488 N.ar    1  UNL1       -0.2188
     29 C          -2.8015   14.3217    0.9101 C.ar    1  UNL1        0.1205
     30 N          -3.7187   14.0195   -0.0405 N.ar    1  UNL1       -0.2159
     31 C          -4.9034   13.6108    0.5375 C.ar    1  UNL1        0.1674
     32 H          -3.5908   12.2748   -3.0413 H       1  UNL1        0.0631
     33 H          -4.0941   12.8359   -4.6614 H       1  UNL1        0.0631
     34 H          -6.2653   11.3354   -3.8553 H       1  UNL1        0.0650
     35 H          -5.8926   14.0257   -4.5568 H       1  UNL1        0.0694
     36 H          -5.1423   14.5928   -2.3124 H       1  UNL1        0.0667
     37 H          -7.4300   12.4986   -1.5937 H       1  UNL1        0.0866
     38 H          -7.9749   12.5130    0.7980 H       1  UNL1        0.1030
     39 H          -1.8467   14.6460    0.5234 H       1  UNL1        0.1048
     40 H          -4.2532   13.0771    4.6759 H       1  UNL1        0.1438
     41 H          -4.2740   14.8255    4.6252 H       1  UNL1        0.1438
     42 H          -7.2833   15.4922   -1.3333 H       1  UNL1        0.2101
@<TRIPOS>BOND
     1     1     2    1
     2     1     3    1
     3     1     4    1
     4     1     8    1
     5     5     6    1
     6     5     7    1
     7     5     8    1
     8     5     9    1
     9     9    10    1
    10    10    11    1
    11    11    12    1
    12    11    13    1
    13    12    21    1
    14    13    14    1
    15    13    19    1
    16    14    15    1
    17    15    16    1
    18    15    17    1
    19    15    18    1
    20    19    20    1
    21    19    21    1
    22    21    22    1
    23    22    23   ar
    24    22    31   ar
    25    23    24   ar
    26    24    25   ar
    27    25    26   ar
    28    25    31   ar
    29    26    27    1
    30    26    28   ar
    31    28    29   ar
    32    29    30   ar
    33    30    31   ar
    34    32    10    1
    35    33    10    1
    36    11    34    1
    37    13    35    1
    38    19    36    1
    39    21    37    1
    40    38    23    1
    41    39    29    1
    42    40    27    1
    43    41    27    1
    44    42    20    1
@<TRIPOS>SUBSTRUCTURE
     1 UNL1        1 TEMP              0 ****  ****    0 ROOT

########## Name:	6	1010.37  0.928114
@<TRIPOS>MOLECULE
af2_protein.mol26	
 42 44 1 0 0
SMALL
GASTEIGER


@<TRIPOS>ATOM
      1 P          -2.3363    8.5588   -3.4708 P.3     1  UNL1        0.0544
      2 O          -3.1048    7.5213   -4.1876 O.co2   1  UNL1       -0.6615
      3 O          -0.9709    8.8303   -4.0356 O.co2   1  UNL1       -0.6615
      4 O          -2.3403    8.3947   -1.9984 O.co2   1  UNL1       -0.6615
      5 P          -2.8328   11.6529   -3.6672 P.3     1  UNL1        0.2491
      6 O          -2.0801   12.6540   -2.8546 O.co2   1  UNL1       -0.6337
      7 O          -3.5239   10.5408   -2.9602 O.co2   1  UNL1       -0.6337
      8 O          -3.1486    9.9643   -3.7435 O.3     1  UNL1       -0.0930
      9 O          -4.0005   12.3278   -4.5791 O.3     1  UNL1       -0.2057
     10 C          -4.9107   13.2557   -4.0227 C.3     1  UNL1        0.1232
     11 C          -6.0260   12.4326   -3.4479 C.3     1  UNL1        0.1214
     12 O          -5.6977   12.2432   -2.0676 O.3     1  UNL1       -0.3453
     13 C          -7.4005   13.1548   -3.4849 C.3     1  UNL1        0.1593
     14 O          -8.4588   12.1706   -3.6674 O.3     1  UNL1       -0.2421
     15 P          -8.5373   11.2243   -5.0869 P.3     1  UNL1       -0.0004
     16 O          -9.9800   11.3410   -5.4151 O.co2   1  UNL1       -0.6646
     17 O          -7.6201   11.9446   -6.0064 O.co2   1  UNL1       -0.6646
     18 O          -8.0365    9.8668   -4.7126 O.co2   1  UNL1       -0.6646
     19 C          -7.4455   13.7653   -2.0894 C.3     1  UNL1        0.1329
     20 O          -8.8034   14.0754   -1.7052 O.3     1  UNL1       -0.3845
     21 C          -6.8852   12.5359   -1.3473 C.3     1  UNL1        0.1668
     22 N          -6.4259   12.7488    0.0437 N.ar    1  UNL1       -0.2855
     23 C          -7.0580   12.1895    1.1261 C.ar    1  UNL1        0.1004
     24 N          -6.5214   12.4941    2.2704 N.ar    1  UNL1       -0.2306
     25 C          -5.4162   13.3430    1.9431 C.ar    1  UNL1        0.1473
     26 C          -4.4093   14.0034    2.7688 C.ar    1  UNL1        0.1472
     27 N          -4.4444   13.9735    4.1153 N.pl3   1  UNL1       -0.3413
     28 N          -3.4548   14.7270    2.1266 N.ar    1  UNL1       -0.2188
     29 C          -3.5171   14.8013    0.7890 C.ar    1  UNL1        0.1205
     30 N          -4.3895   14.2565   -0.0934 N.ar    1  UNL1       -0.2159
     31 C          -5.3451   13.5088    0.5642 C.ar    1  UNL1        0.1674
     32 H          -4.3357   13.7265   -3.2253 H       1  UNL1        0.0631
     33 H          -5.3126   14.0151   -4.6934 H       1  UNL1        0.0631
     34 H          -6.0893   11.4712   -3.9578 H       1  UNL1        0.0650
     35 H          -7.4293   13.9219   -4.2587 H       1  UNL1        0.0694
     36 H          -6.8223   14.6579   -2.1432 H       1  UNL1        0.0667
     37 H          -7.6216   11.7336   -1.3924 H       1  UNL1        0.0866
     38 H          -7.9251   11.5520    1.0350 H       1  UNL1        0.1030
     39 H          -2.7383   15.3978    0.3375 H       1  UNL1        0.1048
     40 H          -4.1904   13.1296    4.6086 H       1  UNL1        0.1438
     41 H          -4.7250   14.7950    4.6314 H       1  UNL1        0.1438
     42 H          -8.8580   14.1444   -0.7492 H       1  UNL1        0.2101
@<TRIPOS>BOND
     1     1     2    1
     2     1     3    1
     3     1     4    1
     4     1     8    1
     5     5     6    1
     6     5     7    1
     7     5     8    1
     8     5     9    1
     9     9    10    1
    10    10    11    1
    11    11    12    1
    12    11    13    1
    13    12    21    1
    14    13    14    1
    15    13    19    1
    16    14    15    1
    17    15    16    1
    18    15    17    1
    19    15    18    1
    20    19    20    1
    21    19    21    1
    22    21    22    1
    23    22    23   ar
    24    22    31   ar
    25    23    24   ar
    26    24    25   ar
    27    25    26   ar
    28    25    31   ar
    29    26    27    1
    30    26    28   ar
    31    28    29   ar
    32    29    30   ar
    33    30    31   ar
    34    32    10    1
    35    33    10    1
    36    11    34    1
    37    13    35    1
    38    19    36    1
    39    21    37    1
    40    38    23    1
    41    39    29    1
    42    40    27    1
    43    41    27    1
    44    42    20    1
@<TRIPOS>SUBSTRUCTURE
     1 UNL1        1 TEMP              0 ****  ****    0 ROOT

########## Name:	7	1026.32  0.931021
@<TRIPOS>MOLECULE
af2_protein.mol27	
 42 44 1 0 0
SMALL
GASTEIGER


@<TRIPOS>ATOM
      1 P          -0.2408    9.3256   -4.4937 P.3     1  UNL1        0.0544
      2 O           0.3827    9.4938   -5.8219 O.co2   1  UNL1       -0.6615
      3 O           0.4195   10.0998   -3.3885 O.co2   1  UNL1       -0.6615
      4 O          -0.5171    7.9143   -4.1379 O.co2   1  UNL1       -0.6615
      5 P          -2.8925   10.7324   -3.5729 P.3     1  UNL1        0.2491
      6 O          -1.9817   11.5569   -2.7245 O.co2   1  UNL1       -0.6337
      7 O          -3.8602    9.8243   -2.8997 O.co2   1  UNL1       -0.6337
      8 O          -1.7235   10.0297   -4.6199 O.3     1  UNL1       -0.0930
      9 O          -3.6781   11.8117   -4.5048 O.3     1  UNL1       -0.2057
     10 C          -4.3135   12.9380   -3.9328 C.3     1  UNL1        0.1232
     11 C          -5.6911   12.4771   -3.5568 C.3     1  UNL1        0.1214
     12 O          -5.6594   12.2725   -2.1404 O.3     1  UNL1       -0.3453
     13 C          -6.7878   13.5425   -3.8296 C.3     1  UNL1        0.1593
     14 O          -8.0314   12.8748   -4.1896 O.3     1  UNL1       -0.2421
     15 P          -8.1331   11.9180   -5.6006 P.3     1  UNL1       -0.0004
     16 O          -9.4108   12.4092   -6.1738 O.co2   1  UNL1       -0.6646
     17 O          -6.9121   12.3136   -6.3479 O.co2   1  UNL1       -0.6646
     18 O          -8.0993   10.4952   -5.1442 O.co2   1  UNL1       -0.6646
     19 C          -6.8916   14.2089   -2.4630 C.3     1  UNL1        0.1329
     20 O          -8.1554   14.8940   -2.3176 O.3     1  UNL1       -0.3845
     21 C          -6.8218   12.9109   -1.6346 C.3     1  UNL1        0.1668
     22 N          -6.5569   13.0580   -0.1857 N.ar    1  UNL1       -0.2855
     23 C          -7.4667   12.6917    0.7744 C.ar    1  UNL1        0.1004
     24 N          -7.0667   12.9027    1.9933 N.ar    1  UNL1       -0.2306
     25 C          -5.7583   13.4673    1.8576 C.ar    1  UNL1        0.1473
     26 C          -4.7738   13.9076    2.8418 C.ar    1  UNL1        0.1472
     27 N          -5.0319   13.9294    4.1639 N.pl3   1  UNL1       -0.3413
     28 N          -3.5878   14.3746    2.3699 N.ar    1  UNL1       -0.2188
     29 C          -3.4145   14.4184    1.0407 C.ar    1  UNL1        0.1205
     30 N          -4.2342   14.0583    0.0235 N.ar    1  UNL1       -0.2159
     31 C          -5.4292   13.5687    0.5103 C.ar    1  UNL1        0.1674
     32 H          -3.7702   13.2730   -3.0492 H       1  UNL1        0.0631
     33 H          -4.3745   13.7446   -4.6633 H       1  UNL1        0.0631
     34 H          -5.9322   11.5455   -4.0689 H       1  UNL1        0.0650
     35 H          -6.4764   14.2504   -4.5976 H       1  UNL1        0.0694
     36 H          -6.0452   14.8677   -2.2690 H       1  UNL1        0.0667
     37 H          -7.7054   12.2959   -1.8052 H       1  UNL1        0.0866
     38 H          -8.4305   12.2654    0.5380 H       1  UNL1        0.1030
     39 H          -2.4571   14.8077    0.7273 H       1  UNL1        0.1048
     40 H          -5.0613   13.0660    4.6871 H       1  UNL1        0.1438
     41 H          -5.1961   14.8092    4.6319 H       1  UNL1        0.1438
     42 H          -8.4072   14.9084   -1.3913 H       1  UNL1        0.2101
@<TRIPOS>BOND
     1     1     2    1
     2     1     3    1
     3     1     4    1
     4     1     8    1
     5     5     6    1
     6     5     7    1
     7     5     8    1
     8     5     9    1
     9     9    10    1
    10    10    11    1
    11    11    12    1
    12    11    13    1
    13    12    21    1
    14    13    14    1
    15    13    19    1
    16    14    15    1
    17    15    16    1
    18    15    17    1
    19    15    18    1
    20    19    20    1
    21    19    21    1
    22    21    22    1
    23    22    23   ar
    24    22    31   ar
    25    23    24   ar
    26    24    25   ar
    27    25    26   ar
    28    25    31   ar
    29    26    27    1
    30    26    28   ar
    31    28    29   ar
    32    29    30   ar
    33    30    31   ar
    34    32    10    1
    35    33    10    1
    36    11    34    1
    37    13    35    1
    38    19    36    1
    39    21    37    1
    40    38    23    1
    41    39    29    1
    42    40    27    1
    43    41    27    1
    44    42    20    1
@<TRIPOS>SUBSTRUCTURE
     1 UNL1        1 TEMP              0 ****  ****    0 ROOT

########## Name:	8	1007.65  0.919833
@<TRIPOS>MOLECULE
af2_protein.mol28	
 42 44 1 0 0
SMALL
GASTEIGER


@<TRIPOS>ATOM
      1 P          -0.0535    9.9168   -4.0155 P.3     1  UNL1        0.0544
      2 O           0.6952   10.1916   -5.2585 O.co2   1  UNL1       -0.6615
      3 O           0.3049   10.8050   -2.8582 O.co2   1  UNL1       -0.6615
      4 O          -0.1099    8.4803   -3.6575 O.co2   1  UNL1       -0.6615
      5 P          -3.0149   10.8109   -3.4775 P.3     1  UNL1        0.2491
      6 O          -2.2594   11.7955   -2.6476 O.co2   1  UNL1       -0.6337
      7 O          -3.9174    9.8481   -2.7898 O.co2   1  UNL1       -0.6337
      8 O          -1.6111   10.3329   -4.3480 O.3     1  UNL1       -0.0930
      9 O          -3.8877   11.6691   -4.5508 O.3     1  UNL1       -0.2057
     10 C          -4.6978   12.7488   -4.1297 C.3     1  UNL1        0.1232
     11 C          -5.9065   12.1242   -3.4968 C.3     1  UNL1        0.1214
     12 O          -5.6387   12.0967   -2.0909 O.3     1  UNL1       -0.3453
     13 C          -7.1994   12.9632   -3.6887 C.3     1  UNL1        0.1593
     14 O          -8.3461   12.0696   -3.7814 O.3     1  UNL1       -0.2421
     15 P          -8.5606   11.0610   -5.1428 P.3     1  UNL1       -0.0004
     16 O          -9.9917   11.3106   -5.4465 O.co2   1  UNL1       -0.6646
     17 O          -7.5988   11.6299   -6.1210 O.co2   1  UNL1       -0.6646
     18 O          -8.1934    9.6808   -4.7025 O.co2   1  UNL1       -0.6646
     19 C          -7.2223   13.7622   -2.3913 C.3     1  UNL1        0.1329
     20 O          -8.5524   14.2516   -2.1100 O.3     1  UNL1       -0.3845
     21 C          -6.8106   12.5991   -1.4674 C.3     1  UNL1        0.1668
     22 N          -6.3722   12.9570   -0.0996 N.ar    1  UNL1       -0.2855
     23 C          -7.0235   12.5174    1.0257 C.ar    1  UNL1        0.1004
     24 N          -6.5035   12.9402    2.1398 N.ar    1  UNL1       -0.2306
     25 C          -5.3896   13.7465    1.7420 C.ar    1  UNL1        0.1473
     26 C          -4.3928   14.4880    2.5091 C.ar    1  UNL1        0.1472
     27 N          -4.4490   14.6012    3.8504 N.pl3   1  UNL1       -0.3413
     28 N          -3.4252   15.1368    1.8091 N.ar    1  UNL1       -0.2188
     29 C          -3.4663   15.0689    0.4703 C.ar    1  UNL1        0.1205
     30 N          -4.3272   14.4361   -0.3632 N.ar    1  UNL1       -0.2159
     31 C          -5.2962   13.7650    0.3546 C.ar    1  UNL1        0.1674
     32 H          -4.1011   13.2678   -3.3794 H       1  UNL1        0.0631
     33 H          -5.0015   13.4433   -4.9129 H       1  UNL1        0.0631
     34 H          -6.0520   11.1121   -3.8747 H       1  UNL1        0.0650
     35 H          -7.1898   13.6881   -4.5025 H       1  UNL1        0.0694
     36 H          -6.4978   14.5724   -2.4727 H       1  UNL1        0.0667
     37 H          -7.5498   11.7985   -1.4389 H       1  UNL1        0.0866
     38 H          -7.8919   11.8762    0.9889 H       1  UNL1        0.1030
     39 H          -2.6778   15.6121   -0.0293 H       1  UNL1        0.1048
     40 H          -4.2065   13.8137    4.4344 H       1  UNL1        0.1438
     41 H          -4.7340   15.4736    4.2720 H       1  UNL1        0.1438
     42 H          -8.6460   14.4005   -1.1662 H       1  UNL1        0.2101
@<TRIPOS>BOND
     1     1     2    1
     2     1     3    1
     3     1     4    1
     4     1     8    1
     5     5     6    1
     6     5     7    1
     7     5     8    1
     8     5     9    1
     9     9    10    1
    10    10    11    1
    11    11    12    1
    12    11    13    1
    13    12    21    1
    14    13    14    1
    15    13    19    1
    16    14    15    1
    17    15    16    1
    18    15    17    1
    19    15    18    1
    20    19    20    1
    21    19    21    1
    22    21    22    1
    23    22    23   ar
    24    22    31   ar
    25    23    24   ar
    26    24    25   ar
    27    25    26   ar
    28    25    31   ar
    29    26    27    1
    30    26    28   ar
    31    28    29   ar
    32    29    30   ar
    33    30    31   ar
    34    32    10    1
    35    33    10    1
    36    11    34    1
    37    13    35    1
    38    19    36    1
    39    21    37    1
    40    38    23    1
    41    39    29    1
    42    40    27    1
    43    41    27    1
    44    42    20    1
@<TRIPOS>SUBSTRUCTURE
     1 UNL1        1 TEMP              0 ****  ****    0 ROOT

########## Name:	9	1003.98  0.937513
@<TRIPOS>MOLECULE
af2_protein.mol29	
 42 44 1 0 0
SMALL
GASTEIGER


@<TRIPOS>ATOM
      1 P          -2.0576    8.0366   -3.5543 P.3     1  UNL1        0.0544
      2 O          -2.9141    6.9675   -4.1060 O.co2   1  UNL1       -0.6615
      3 O          -0.8098    8.3110   -4.3446 O.co2   1  UNL1       -0.6615
      4 O          -1.8151    7.9157   -2.0977 O.co2   1  UNL1       -0.6615
      5 P          -2.6386   11.1161   -3.7478 P.3     1  UNL1        0.2491
      6 O          -1.5946   12.1282   -3.4088 O.co2   1  UNL1       -0.6337
      7 O          -3.2133   10.2944   -2.6484 O.co2   1  UNL1       -0.6337
      8 O          -2.9305    9.4217   -3.7258 O.3     1  UNL1       -0.0930
      9 O          -3.9704   11.7505   -4.4363 O.3     1  UNL1       -0.2057
     10 C          -4.5951   12.8952   -3.8897 C.3     1  UNL1        0.1232
     11 C          -5.8867   12.4082   -3.3012 C.3     1  UNL1        0.1214
     12 O          -5.6689   12.3411   -1.8880 O.3     1  UNL1       -0.3453
     13 C          -7.0689   13.3904   -3.5245 C.3     1  UNL1        0.1593
     14 O          -8.3063   12.6340   -3.6619 O.3     1  UNL1       -0.2421
     15 P          -8.5143   11.5233   -4.9424 P.3     1  UNL1       -0.0004
     16 O          -9.8537   11.9251   -5.4394 O.co2   1  UNL1       -0.6646
     17 O          -7.3810   11.8534   -5.8436 O.co2   1  UNL1       -0.6646
     18 O          -8.3978   10.1615   -4.3376 O.co2   1  UNL1       -0.6646
     19 C          -7.0424   14.1783   -2.2203 C.3     1  UNL1        0.1329
     20 O          -8.3165   14.8142   -1.9755 O.3     1  UNL1       -0.3845
     21 C          -6.7954   12.9696   -1.2960 C.3     1  UNL1        0.1668
     22 N          -6.3632   13.2662    0.0883 N.ar    1  UNL1       -0.2855
     23 C          -7.1914   13.1120    1.1718 C.ar    1  UNL1        0.1004
     24 N          -6.6448   13.4301    2.3078 N.ar    1  UNL1       -0.2306
     25 C          -5.3153   13.8416    1.9727 C.ar    1  UNL1        0.1473
     26 C          -4.1957   14.2997    2.7903 C.ar    1  UNL1        0.1472
     27 N          -4.3059   14.5086    4.1167 N.pl3   1  UNL1       -0.3413
     28 N          -3.0324   14.5858    2.1484 N.ar    1  UNL1       -0.2188
     29 C          -3.0013   14.4492    0.8146 C.ar    1  UNL1        0.1205
     30 N          -3.9544   14.0500   -0.0621 N.ar    1  UNL1       -0.2159
     31 C          -5.1270   13.7442    0.5984 C.ar    1  UNL1        0.1674
     32 H          -3.9676   13.3377   -3.1161 H       1  UNL1        0.0631
     33 H          -4.7926   13.6249   -4.6749 H       1  UNL1        0.0631
     34 H          -6.1342   11.4219   -3.6937 H       1  UNL1        0.0650
     35 H          -6.8867   14.0215   -4.3943 H       1  UNL1        0.0694
     36 H          -6.2179   14.8905   -2.1904 H       1  UNL1        0.0667
     37 H          -7.7418   12.4288   -1.2976 H       1  UNL1        0.0866
     38 H          -8.2081   12.7573    1.0881 H       1  UNL1        0.1030
     39 H          -2.0538   14.7005    0.3614 H       1  UNL1        0.1048
     40 H          -4.3522   13.7229    4.7497 H       1  UNL1        0.1438
     41 H          -4.3424   15.4510    4.4781 H       1  UNL1        0.1438
     42 H          -8.4547   14.9008   -1.0294 H       1  UNL1        0.2101
@<TRIPOS>BOND
     1     1     2    1
     2     1     3    1
     3     1     4    1
     4     1     8    1
     5     5     6    1
     6     5     7    1
     7     5     8    1
     8     5     9    1
     9     9    10    1
    10    10    11    1
    11    11    12    1
    12    11    13    1
    13    12    21    1
    14    13    14    1
    15    13    19    1
    16    14    15    1
    17    15    16    1
    18    15    17    1
    19    15    18    1
    20    19    20    1
    21    19    21    1
    22    21    22    1
    23    22    23   ar
    24    22    31   ar
    25    23    24   ar
    26    24    25   ar
    27    25    26   ar
    28    25    31   ar
    29    26    27    1
    30    26    28   ar
    31    28    29   ar
    32    29    30   ar
    33    30    31   ar
    34    32    10    1
    35    33    10    1
    36    11    34    1
    37    13    35    1
    38    19    36    1
    39    21    37    1
    40    38    23    1
    41    39    29    1
    42    40    27    1
    43    41    27    1
    44    42    20    1
@<TRIPOS>SUBSTRUCTURE
     1 UNL1        1 TEMP              0 ****  ****    0 ROOT

########## Name:	10	1038.95  0.920895
@<TRIPOS>MOLECULE
af2_protein.mol210	
 42 44 1 0 0
SMALL
GASTEIGER


@<TRIPOS>ATOM
      1 P          -0.3944    9.7684   -4.1968 P.3     1  UNL1        0.0544
      2 O           0.2489    9.8276   -5.5248 O.co2   1  UNL1       -0.6615
      3 O           0.2365   10.6474   -3.1546 O.co2   1  UNL1       -0.6615
      4 O          -0.6571    8.3901   -3.7213 O.co2   1  UNL1       -0.6615
      5 P          -3.1192   11.1284   -3.4322 P.3     1  UNL1        0.2491
      6 O          -2.4580   11.9870   -2.4052 O.co2   1  UNL1       -0.6337
      7 O          -4.0526   10.0643   -2.9728 O.co2   1  UNL1       -0.6337
      8 O          -1.8843   10.4358   -4.4080 O.3     1  UNL1       -0.0930
      9 O          -3.9189   12.1297   -4.4363 O.3     1  UNL1       -0.2057
     10 C          -4.7852   13.1259   -3.9298 C.3     1  UNL1        0.1232
     11 C          -5.9505   12.3865   -3.3408 C.3     1  UNL1        0.1214
     12 O          -5.6282   12.1898   -1.9600 O.3     1  UNL1       -0.3453
     13 C          -7.2730   13.1999   -3.3790 C.3     1  UNL1        0.1593
     14 O          -8.3967   12.2879   -3.5456 O.3     1  UNL1       -0.2421
     15 P          -8.5470   11.3342   -4.9543 P.3     1  UNL1       -0.0004
     16 O          -9.9660   11.5880   -5.3075 O.co2   1  UNL1       -0.6646
     17 O          -7.5494   11.9475   -5.8677 O.co2   1  UNL1       -0.6646
     18 O          -8.1885    9.9393   -4.5550 O.co2   1  UNL1       -0.6646
     19 C          -7.2688   13.8268   -1.9900 C.3     1  UNL1        0.1329
     20 O          -8.6004   14.2323   -1.6027 O.3     1  UNL1       -0.3845
     21 C          -6.7891   12.5701   -1.2373 C.3     1  UNL1        0.1668
     22 N          -6.3087   12.7660    0.1491 N.ar    1  UNL1       -0.2855
     23 C          -6.9401   12.2155    1.2364 C.ar    1  UNL1        0.1004
     24 N          -6.3834   12.5026    2.3756 N.ar    1  UNL1       -0.2306
     25 C          -5.2636   13.3284    2.0390 C.ar    1  UNL1        0.1473
     26 C          -4.2326   13.9625    2.8557 C.ar    1  UNL1        0.1472
     27 N          -4.2524   13.9268    4.2023 N.pl3   1  UNL1       -0.3413
     28 N          -3.2700   14.6680    2.2054 N.ar    1  UNL1       -0.2188
     29 C          -3.3465   14.7501    0.8690 C.ar    1  UNL1        0.1205
     30 N          -4.2412   14.2290   -0.0054 N.ar    1  UNL1       -0.2159
     31 C          -5.2052   13.4994    0.6602 C.ar    1  UNL1        0.1674
     32 H          -4.1751   13.5650   -3.1404 H       1  UNL1        0.0631
     33 H          -5.1383   13.9036   -4.6068 H       1  UNL1        0.0631
     34 H          -6.0817   11.4263   -3.8397 H       1  UNL1        0.0650
     35 H          -7.2540   13.9589   -4.1610 H       1  UNL1        0.0694
     36 H          -6.5540   14.6461   -1.9141 H       1  UNL1        0.0667
     37 H          -7.5436   11.7845   -1.2772 H       1  UNL1        0.0866
     38 H          -7.8221   11.5978    1.1528 H       1  UNL1        0.1030
     39 H          -2.5601   15.3315    0.4110 H       1  UNL1        0.1048
     40 H          -4.0112   13.0751    4.6886 H       1  UNL1        0.1438
     41 H          -4.5086   14.7518    4.7255 H       1  UNL1        0.1438
     42 H          -8.6838   14.1874   -0.6474 H       1  UNL1        0.2101
@<TRIPOS>BOND
     1     1     2    1
     2     1     3    1
     3     1     4    1
     4     1     8    1
     5     5     6    1
     6     5     7    1
     7     5     8    1
     8     5     9    1
     9     9    10    1
    10    10    11    1
    11    11    12    1
    12    11    13    1
    13    12    21    1
    14    13    14    1
    15    13    19    1
    16    14    15    1
    17    15    16    1
    18    15    17    1
    19    15    18    1
    20    19    20    1
    21    19    21    1
    22    21    22    1
    23    22    23   ar
    24    22    31   ar
    25    23    24   ar
    26    24    25   ar
    27    25    26   ar
    28    25    31   ar
    29    26    27    1
    30    26    28   ar
    31    28    29   ar
    32    29    30   ar
    33    30    31   ar
    34    32    10    1
    35    33    10    1
    36    11    34    1
    37    13    35    1
    38    19    36    1
    39    21    37    1
    40    38    23    1
    41    39    29    1
    42    40    27    1
    43    41    27    1
    44    42    20    1
@<TRIPOS>SUBSTRUCTURE
     1 UNL1        1 TEMP              0 ****  ****    0 ROOT

########## Name:	11	1061.37  0.922961
@<TRIPOS>MOLECULE
af2_protein.mol211	
 42 44 1 0 0
SMALL
GASTEIGER


@<TRIPOS>ATOM
      1 P          -0.2807    9.9237   -3.9699 P.3     1  UNL1        0.0544
      2 O           0.8222   10.4240   -4.8150 O.co2   1  UNL1       -0.6615
      3 O          -0.2243   10.3695   -2.5364 O.co2   1  UNL1       -0.6615
      4 O          -0.5405    8.4733   -4.1237 O.co2   1  UNL1       -0.6615
      5 P          -3.2018   11.0752   -3.9705 P.3     1  UNL1        0.2491
      6 O          -2.6555   11.5873   -2.6789 O.co2   1  UNL1       -0.6337
      7 O          -4.2307   10.0009   -3.9294 O.co2   1  UNL1       -0.6337
      8 O          -1.6352   10.6609   -4.5459 O.3     1  UNL1       -0.0930
      9 O          -3.4196   12.6147   -4.4531 O.3     1  UNL1       -0.2057
     10 C          -4.2002   13.5117   -3.6880 C.3     1  UNL1        0.1232
     11 C          -5.4793   12.7844   -3.3939 C.3     1  UNL1        0.1214
     12 O          -5.4410   12.4806   -1.9956 O.3     1  UNL1       -0.3453
     13 C          -6.7446   13.6544   -3.6271 C.3     1  UNL1        0.1593
     14 O          -7.8391   12.8049   -4.0770 O.3     1  UNL1       -0.2421
     15 P          -7.7556   11.9928   -5.5771 P.3     1  UNL1       -0.0004
     16 O          -9.0972   12.3017   -6.1314 O.co2   1  UNL1       -0.6646
     17 O          -6.6214   12.6748   -6.2509 O.co2   1  UNL1       -0.6646
     18 O          -7.4676   10.5606   -5.2616 O.co2   1  UNL1       -0.6646
     19 C          -6.9960   14.1845   -2.2207 C.3     1  UNL1        0.1329
     20 O          -8.3656   14.6193   -2.0701 O.3     1  UNL1       -0.3845
     21 C          -6.7101   12.8601   -1.4857 C.3     1  UNL1        0.1668
     22 N          -6.5067   12.9403   -0.0217 N.ar    1  UNL1       -0.2855
     23 C          -7.3634   12.3570    0.8781 C.ar    1  UNL1        0.1004
     24 N          -7.0325   12.5397    2.1220 N.ar    1  UNL1       -0.2306
     25 C          -5.8350   13.3225    2.0719 C.ar    1  UNL1        0.1473
     26 C          -4.9614   13.8455    3.1183 C.ar    1  UNL1        0.1472
     27 N          -5.2494   13.7250    4.4289 N.pl3   1  UNL1       -0.3413
     28 N          -3.8606   14.5371    2.7220 N.ar    1  UNL1       -0.2188
     29 C          -3.6670   14.7086    1.4060 C.ar    1  UNL1        0.1205
     30 N          -4.3910   14.2944    0.3380 N.ar    1  UNL1       -0.2159
     31 C          -5.4972   13.5778    0.7473 C.ar    1  UNL1        0.1674
     32 H          -3.7451   13.8695   -2.7643 H       1  UNL1        0.0631
     33 H          -4.3907   14.3482   -4.3603 H       1  UNL1        0.0631
     34 H          -5.5371   11.8670   -3.9796 H       1  UNL1        0.0650
     35 H          -6.5710   14.4817   -4.3152 H       1  UNL1        0.0694
     36 H          -6.2870   14.9654   -1.9459 H       1  UNL1        0.0667
     37 H          -7.4734   12.1212   -1.7297 H       1  UNL1        0.0866
     38 H          -8.2361   11.7952    0.5789 H       1  UNL1        0.1030
     39 H          -2.7819   15.2739    1.1542 H       1  UNL1        0.1048
     40 H          -5.1449   12.8320    4.8890 H       1  UNL1        0.1438
     41 H          -5.5701   14.5277    4.9513 H       1  UNL1        0.1438
     42 H          -8.6368   14.5130   -1.1553 H       1  UNL1        0.2101
@<TRIPOS>BOND
     1     1     2    1
     2     1     3    1
     3     1     4    1
     4     1     8    1
     5     5     6    1
     6     5     7    1
     7     5     8    1
     8     5     9    1
     9     9    10    1
    10    10    11    1
    11    11    12    1
    12    11    13    1
    13    12    21    1
    14    13    14    1
    15    13    19    1
    16    14    15    1
    17    15    16    1
    18    15    17    1
    19    15    18    1
    20    19    20    1
    21    19    21    1
    22    21    22    1
    23    22    23   ar
    24    22    31   ar
    25    23    24   ar
    26    24    25   ar
    27    25    26   ar
    28    25    31   ar
    29    26    27    1
    30    26    28   ar
    31    28    29   ar
    32    29    30   ar
    33    30    31   ar
    34    32    10    1
    35    33    10    1
    36    11    34    1
    37    13    35    1
    38    19    36    1
    39    21    37    1
    40    38    23    1
    41    39    29    1
    42    40    27    1
    43    41    27    1
    44    42    20    1
@<TRIPOS>SUBSTRUCTURE
     1 UNL1        1 TEMP              0 ****  ****    0 ROOT

########## Name:	12	1024.72  0.939546
@<TRIPOS>MOLECULE
af2_protein.mol212	
 42 44 1 0 0
SMALL
GASTEIGER


@<TRIPOS>ATOM
      1 P          -0.6505    8.2588   -2.9060 P.3     1  UNL1        0.0544
      2 O          -0.8941    7.7430   -1.5438 O.co2   1  UNL1       -0.6615
      3 O          -0.9728    7.2919   -4.0096 O.co2   1  UNL1       -0.6615
      4 O           0.6666    8.9174   -3.0686 O.co2   1  UNL1       -0.6615
      5 P          -2.4709   10.3171   -4.4253 P.3     1  UNL1        0.2491
      6 O          -2.3108   10.9340   -5.7754 O.co2   1  UNL1       -0.6337
      7 O          -1.4216   10.5701   -3.4009 O.co2   1  UNL1       -0.6337
      8 O          -1.7551    9.4609   -3.1170 O.3     1  UNL1       -0.0930
      9 O          -3.9422   10.7458   -3.8758 O.3     1  UNL1       -0.2057
     10 C          -4.3450   12.1011   -3.8610 C.3     1  UNL1        0.1232
     11 C          -5.8120   12.0830   -3.5458 C.3     1  UNL1        0.1214
     12 O          -5.9020   11.9956   -2.1198 O.3     1  UNL1       -0.3453
     13 C          -6.5423   13.3897   -3.9599 C.3     1  UNL1        0.1593
     14 O          -7.9087   13.0752   -4.3550 O.3     1  UNL1       -0.2421
     15 P          -8.2248   12.1935   -5.7831 P.3     1  UNL1       -0.0004
     16 O          -9.2059   13.0879   -6.4464 O.co2   1  UNL1       -0.6646
     17 O          -6.8883   12.1331   -6.4279 O.co2   1  UNL1       -0.6646
     18 O          -8.7197   10.8528   -5.3456 O.co2   1  UNL1       -0.6646
     19 C          -6.5088   14.1686   -2.6506 C.3     1  UNL1        0.1329
     20 O          -7.5268   15.1939   -2.6339 O.3     1  UNL1       -0.3845
     21 C          -6.8520   12.9773   -1.7346 C.3     1  UNL1        0.1668
     22 N          -6.6191   13.1623   -0.2846 N.ar    1  UNL1       -0.2855
     23 C          -7.5696   12.8699    0.6614 C.ar    1  UNL1        0.1004
     24 N          -7.1928   13.1048    1.8833 N.ar    1  UNL1       -0.2306
     25 C          -5.8570   13.6058    1.7655 C.ar    1  UNL1        0.1473
     26 C          -4.8798   14.0357    2.7617 C.ar    1  UNL1        0.1472
     27 N          -5.1715   14.1143    4.0746 N.pl3   1  UNL1       -0.3413
     28 N          -3.6620   14.4330    2.3078 N.ar    1  UNL1       -0.2188
     29 C          -3.4518   14.4233    0.9832 C.ar    1  UNL1        0.1205
     30 N          -4.2598   14.0652   -0.0439 N.ar    1  UNL1       -0.2159
     31 C          -5.4882   13.6461    0.4253 C.ar    1  UNL1        0.1674
     32 H          -3.7671   12.3398   -2.9681 H       1  UNL1        0.0631
     33 H          -4.1393   12.8286   -4.6461 H       1  UNL1        0.0631
     34 H          -6.2887   11.2193   -4.0093 H       1  UNL1        0.0650
     35 H          -6.0387   13.9992   -4.7102 H       1  UNL1        0.0694
     36 H          -5.5044   14.5908   -2.6820 H       1  UNL1        0.0667
     37 H          -7.7577   12.3966   -1.9093 H       1  UNL1        0.0866
     38 H          -8.5451   12.4789    0.4125 H       1  UNL1        0.1030
     39 H          -2.4698   14.7587    0.6839 H       1  UNL1        0.1048
     40 H          -5.2538   13.2716    4.6251 H       1  UNL1        0.1438
     41 H          -5.3081   15.0161    4.5084 H       1  UNL1        0.1438
     42 H          -7.6533   15.5051   -1.7346 H       1  UNL1        0.2101
@<TRIPOS>BOND
     1     1     2    1
     2     1     3    1
     3     1     4    1
     4     1     8    1
     5     5     6    1
     6     5     7    1
     7     5     8    1
     8     5     9    1
     9     9    10    1
    10    10    11    1
    11    11    12    1
    12    11    13    1
    13    12    21    1
    14    13    14    1
    15    13    19    1
    16    14    15    1
    17    15    16    1
    18    15    17    1
    19    15    18    1
    20    19    20    1
    21    19    21    1
    22    21    22    1
    23    22    23   ar
    24    22    31   ar
    25    23    24   ar
    26    24    25   ar
    27    25    26   ar
    28    25    31   ar
    29    26    27    1
    30    26    28   ar
    31    28    29   ar
    32    29    30   ar
    33    30    31   ar
    34    32    10    1
    35    33    10    1
    36    11    34    1
    37    13    35    1
    38    19    36    1
    39    21    37    1
    40    38    23    1
    41    39    29    1
    42    40    27    1
    43    41    27    1
    44    42    20    1
@<TRIPOS>SUBSTRUCTURE
     1 UNL1        1 TEMP              0 ****  ****    0 ROOT

########## Name:	13	1076.12  0.922348
@<TRIPOS>MOLECULE
af2_protein.mol213	
 42 44 1 0 0
SMALL
GASTEIGER


@<TRIPOS>ATOM
      1 P          -1.5395    8.9681   -2.8970 P.3     1  UNL1        0.0544
      2 O          -2.4065    8.2998   -1.9056 O.co2   1  UNL1       -0.6615
      3 O          -1.2674    8.1631   -4.1358 O.co2   1  UNL1       -0.6615
      4 O          -0.3213    9.5753   -2.3122 O.co2   1  UNL1       -0.6615
      5 P          -2.4252   11.2874   -4.8192 P.3     1  UNL1        0.2491
      6 O          -1.5776   12.5142   -4.7447 O.co2   1  UNL1       -0.6337
      7 O          -2.3328   10.2933   -3.7158 O.co2   1  UNL1       -0.6337
      8 O          -2.4222   10.2407   -3.4550 O.3     1  UNL1       -0.0930
      9 O          -3.9685   11.7906   -4.9437 O.3     1  UNL1       -0.2057
     10 C          -4.4926   12.7528   -4.0499 C.3     1  UNL1        0.1232
     11 C          -5.6890   12.1059   -3.4160 C.3     1  UNL1        0.1214
     12 O          -5.3842   12.0080   -2.0208 O.3     1  UNL1       -0.3453
     13 C          -6.9799   12.9616   -3.5320 C.3     1  UNL1        0.1593
     14 O          -8.1356   12.0812   -3.6372 O.3     1  UNL1       -0.2421
     15 P          -8.1734   10.8223   -4.7907 P.3     1  UNL1       -0.0004
     16 O          -9.5139   11.0387   -5.3894 O.co2   1  UNL1       -0.6646
     17 O          -7.0262   11.1575   -5.6723 O.co2   1  UNL1       -0.6646
     18 O          -7.9695    9.5520   -4.0299 O.co2   1  UNL1       -0.6646
     19 C          -6.9622   13.6965   -2.1971 C.3     1  UNL1        0.1329
     20 O          -8.2805   14.1802   -1.8567 O.3     1  UNL1       -0.3845
     21 C          -6.5353   12.4870   -1.3423 C.3     1  UNL1        0.1668
     22 N          -6.0580   12.7748    0.0291 N.ar    1  UNL1       -0.2855
     23 C          -6.7776   12.4409    1.1490 C.ar    1  UNL1        0.1004
     24 N          -6.2078   12.7802    2.2673 N.ar    1  UNL1       -0.2306
     25 C          -4.9806   13.4063    1.8786 C.ar    1  UNL1        0.1473
     26 C          -3.8882   13.9873    2.6537 C.ar    1  UNL1        0.1472
     27 N          -3.9369   14.1089    3.9946 N.pl3   1  UNL1       -0.3413
     28 N          -2.8273   14.4799    1.9616 N.ar    1  UNL1       -0.2188
     29 C          -2.8678   14.4180    0.6225 C.ar    1  UNL1        0.1205
     30 N          -3.8088   13.9235   -0.2179 N.ar    1  UNL1       -0.2159
     31 C          -4.8747   13.4091    0.4920 C.ar    1  UNL1        0.1674
     32 H          -3.8723   13.2306   -3.2916 H       1  UNL1        0.0631
     33 H          -4.8116   13.4866   -4.7900 H       1  UNL1        0.0631
     34 H          -5.8524   11.1145   -3.8386 H       1  UNL1        0.0650
     35 H          -6.8071   13.5082   -4.4591 H       1  UNL1        0.0694
     36 H          -6.1871   14.4279   -1.9683 H       1  UNL1        0.0667
     37 H          -7.3884   11.8089   -1.3199 H       1  UNL1        0.0866
     38 H          -7.7335   11.9401    1.1052 H       1  UNL1        0.1030
     39 H          -2.0017   14.8338    0.1293 H       1  UNL1        0.1048
     40 H          -3.8222   13.2940    4.5802 H       1  UNL1        0.1438
     41 H          -4.0884   15.0150    4.4143 H       1  UNL1        0.1438
     42 H          -8.4455   14.0302   -0.9230 H       1  UNL1        0.2101
@<TRIPOS>BOND
     1     1     2    1
     2     1     3    1
     3     1     4    1
     4     1     8    1
     5     5     6    1
     6     5     7    1
     7     5     8    1
     8     5     9    1
     9     9    10    1
    10    10    11    1
    11    11    12    1
    12    11    13    1
    13    12    21    1
    14    13    14    1
    15    13    19    1
    16    14    15    1
    17    15    16    1
    18    15    17    1
    19    15    18    1
    20    19    20    1
    21    19    21    1
    22    21    22    1
    23    22    23   ar
    24    22    31   ar
    25    23    24   ar
    26    24    25   ar
    27    25    26   ar
    28    25    31   ar
    29    26    27    1
    30    26    28   ar
    31    28    29   ar
    32    29    30   ar
    33    30    31   ar
    34    32    10    1
    35    33    10    1
    36    11    34    1
    37    13    35    1
    38    19    36    1
    39    21    37    1
    40    38    23    1
    41    39    29    1
    42    40    27    1
    43    41    27    1
    44    42    20    1
@<TRIPOS>SUBSTRUCTURE
     1 UNL1        1 TEMP              0 ****  ****    0 ROOT

########## Name:	14	1016.23  0.922857
@<TRIPOS>MOLECULE
af2_protein.mol214	
 42 44 1 0 0
SMALL
GASTEIGER


@<TRIPOS>ATOM
      1 P          -4.0999    7.4871   -3.4497 P.3     1  UNL1        0.0544
      2 O          -5.5030    7.0493   -3.5933 O.co2   1  UNL1       -0.6615
      3 O          -3.1788    7.0067   -4.5349 O.co2   1  UNL1       -0.6615
      4 O          -3.5511    7.2963   -2.0869 O.co2   1  UNL1       -0.6615
      5 P          -3.0216   10.3715   -4.0633 P.3     1  UNL1        0.2491
      6 O          -1.8161   10.9964   -3.4425 O.co2   1  UNL1       -0.6337
      7 O          -3.9024    9.5283   -3.2104 O.co2   1  UNL1       -0.6337
      8 O          -4.1313    9.1182   -3.6701 O.3     1  UNL1       -0.0930
      9 O          -3.9523   11.5704   -4.6522 O.3     1  UNL1       -0.2057
     10 C          -4.2690   12.6988   -3.8612 C.3     1  UNL1        0.1232
     11 C          -5.6173   12.4113   -3.2687 C.3     1  UNL1        0.1214
     12 O          -5.4105   12.3275   -1.8548 O.3     1  UNL1       -0.3453
     13 C          -6.6439   13.5530   -3.5029 C.3     1  UNL1        0.1593
     14 O          -7.9784   12.9836   -3.6336 O.3     1  UNL1       -0.2421
     15 P          -8.3565   11.9289   -4.9225 P.3     1  UNL1       -0.0004
     16 O          -9.6165   12.5386   -5.4154 O.co2   1  UNL1       -0.6646
     17 O          -7.1851   12.0851   -5.8219 O.co2   1  UNL1       -0.6646
     18 O          -8.4543   10.5610   -4.3283 O.co2   1  UNL1       -0.6646
     19 C          -6.5019   14.3418   -2.2068 C.3     1  UNL1        0.1329
     20 O          -7.6695   15.1591   -1.9694 O.3     1  UNL1       -0.3845
     21 C          -6.4330   13.1196   -1.2701 C.3     1  UNL1        0.1668
     22 N          -5.9611   13.3640    0.1115 N.ar    1  UNL1       -0.2855
     23 C          -6.7599   13.1742    1.2114 C.ar    1  UNL1        0.1004
     24 N          -6.1805   13.4487    2.3424 N.ar    1  UNL1       -0.2306
     25 C          -4.8586   13.8666    1.9856 C.ar    1  UNL1        0.1473
     26 C          -3.7144   14.2901    2.7877 C.ar    1  UNL1        0.1472
     27 N          -3.7869   14.4513    4.1233 N.pl3   1  UNL1       -0.3413
     28 N          -2.5679   14.5943    2.1244 N.ar    1  UNL1       -0.2188
     29 C          -2.5744   14.5059    0.7862 C.ar    1  UNL1        0.1205
     30 N          -3.5534   14.1428   -0.0775 N.ar    1  UNL1       -0.2159
     31 C          -4.7089   13.8182    0.6039 C.ar    1  UNL1        0.1674
     32 H          -3.5831   13.0531   -3.0916 H       1  UNL1        0.0631
     33 H          -4.3586   13.4415   -4.6539 H       1  UNL1        0.0631
     34 H          -6.0062   11.4676   -3.6514 H       1  UNL1        0.0650
     35 H          -6.3816   14.1613   -4.3685 H       1  UNL1        0.0694
     36 H          -5.5788   14.9163   -2.1302 H       1  UNL1        0.0667
     37 H          -7.3818   12.5831   -1.2649 H       1  UNL1        0.0866
     38 H          -7.7803   12.8270    1.1432 H       1  UNL1        0.1030
     39 H          -1.6385   14.7696    0.3161 H       1  UNL1        0.1048
     40 H          -3.8198   13.6435    4.7286 H       1  UNL1        0.1438
     41 H          -3.8085   15.3802    4.5193 H       1  UNL1        0.1438
     42 H          -7.8209   15.2346   -1.0244 H       1  UNL1        0.2101
@<TRIPOS>BOND
     1     1     2    1
     2     1     3    1
     3     1     4    1
     4     1     8    1
     5     5     6    1
     6     5     7    1
     7     5     8    1
     8     5     9    1
     9     9    10    1
    10    10    11    1
    11    11    12    1
    12    11    13    1
    13    12    21    1
    14    13    14    1
    15    13    19    1
    16    14    15    1
    17    15    16    1
    18    15    17    1
    19    15    18    1
    20    19    20    1
    21    19    21    1
    22    21    22    1
    23    22    23   ar
    24    22    31   ar
    25    23    24   ar
    26    24    25   ar
    27    25    26   ar
    28    25    31   ar
    29    26    27    1
    30    26    28   ar
    31    28    29   ar
    32    29    30   ar
    33    30    31   ar
    34    32    10    1
    35    33    10    1
    36    11    34    1
    37    13    35    1
    38    19    36    1
    39    21    37    1
    40    38    23    1
    41    39    29    1
    42    40    27    1
    43    41    27    1
    44    42    20    1
@<TRIPOS>SUBSTRUCTURE
     1 UNL1        1 TEMP              0 ****  ****    0 ROOT

########## Name:	15	1028.65  0.923048
@<TRIPOS>MOLECULE
af2_protein.mol215	
 42 44 1 0 0
SMALL
GASTEIGER


@<TRIPOS>ATOM
      1 P          -0.6920    8.7568   -2.9125 P.3     1  UNL1        0.0544
      2 O          -0.8336    7.5482   -3.7493 O.co2   1  UNL1       -0.6615
      3 O           0.5315    9.5794   -3.2009 O.co2   1  UNL1       -0.6615
      4 O          -0.9070    8.5113   -1.4673 O.co2   1  UNL1       -0.6615
      5 P          -2.3341   11.4109   -3.2560 P.3     1  UNL1        0.2491
      6 O          -1.3923   12.5485   -3.0372 O.co2   1  UNL1       -0.6337
      7 O          -3.0728   10.8661   -2.0847 O.co2   1  UNL1       -0.6337
      8 O          -1.9303    9.7429   -3.3644 O.3     1  UNL1       -0.0930
      9 O          -3.6597   11.5708   -4.1875 O.3     1  UNL1       -0.2057
     10 C          -4.4745   12.7230   -4.0989 C.3     1  UNL1        0.1232
     11 C          -5.8233   12.2314   -3.6622 C.3     1  UNL1        0.1214
     12 O          -5.7296   12.0463   -2.2458 O.3     1  UNL1       -0.3453
     13 C          -6.9579   13.2642   -3.9034 C.3     1  UNL1        0.1593
     14 O          -8.1967   12.5597   -4.2050 O.3     1  UNL1       -0.2421
     15 P          -8.3293   11.5822   -5.5991 P.3     1  UNL1       -0.0004
     16 O          -9.6179   12.0672   -6.1529 O.co2   1  UNL1       -0.6646
     17 O          -7.1235   11.9643   -6.3774 O.co2   1  UNL1       -0.6646
     18 O          -8.2881   10.1663   -5.1223 O.co2   1  UNL1       -0.6646
     19 C          -7.0247   13.9456   -2.5419 C.3     1  UNL1        0.1329
     20 O          -8.2994   14.5994   -2.3539 O.3     1  UNL1       -0.3845
     21 C          -6.8874   12.6608   -1.7014 C.3     1  UNL1        0.1668
     22 N          -6.5689   12.8338   -0.2661 N.ar    1  UNL1       -0.2855
     23 C          -7.4296   12.4565    0.7342 C.ar    1  UNL1        0.1004
     24 N          -6.9870   12.6939    1.9333 N.ar    1  UNL1       -0.2306
     25 C          -5.7005   13.2905    1.7382 C.ar    1  UNL1        0.1473
     26 C          -4.6895   13.7691    2.6766 C.ar    1  UNL1        0.1472
     27 N          -4.8951   13.8015    4.0077 N.pl3   1  UNL1       -0.3413
     28 N          -3.5361   14.2605    2.1517 N.ar    1  UNL1       -0.2188
     29 C          -3.4173   14.2914    0.8162 C.ar    1  UNL1        0.1205
     30 N          -4.2671   13.8968   -0.1627 N.ar    1  UNL1       -0.2159
     31 C          -5.4283   13.3827    0.3776 C.ar    1  UNL1        0.1674
     32 H          -3.9054   13.0836   -3.2419 H       1  UNL1        0.0631
     33 H          -4.5860   13.5182   -4.8359 H       1  UNL1        0.0631
     34 H          -6.0598   11.2872   -4.1529 H       1  UNL1        0.0650
     35 H          -6.6963   13.9698   -4.6918 H       1  UNL1        0.0694
     36 H          -6.2096   14.6619   -2.6452 H       1  UNL1        0.0667
     37 H          -7.7605   12.0209   -1.8288 H       1  UNL1        0.0866
     38 H          -8.3905   12.0022    0.5419 H       1  UNL1        0.1030
     39 H          -2.4838   14.7013    0.4598 H       1  UNL1        0.1048
     40 H          -4.8807   12.9445    4.5420 H       1  UNL1        0.1438
     41 H          -5.0638   14.6828    4.4713 H       1  UNL1        0.1438
     42 H          -8.4100   14.8254   -1.4275 H       1  UNL1        0.2101
@<TRIPOS>BOND
     1     1     2    1
     2     1     3    1
     3     1     4    1
     4     1     8    1
     5     5     6    1
     6     5     7    1
     7     5     8    1
     8     5     9    1
     9     9    10    1
    10    10    11    1
    11    11    12    1
    12    11    13    1
    13    12    21    1
    14    13    14    1
    15    13    19    1
    16    14    15    1
    17    15    16    1
    18    15    17    1
    19    15    18    1
    20    19    20    1
    21    19    21    1
    22    21    22    1
    23    22    23   ar
    24    22    31   ar
    25    23    24   ar
    26    24    25   ar
    27    25    26   ar
    28    25    31   ar
    29    26    27    1
    30    26    28   ar
    31    28    29   ar
    32    29    30   ar
    33    30    31   ar
    34    32    10    1
    35    33    10    1
    36    11    34    1
    37    13    35    1
    38    19    36    1
    39    21    37    1
    40    38    23    1
    41    39    29    1
    42    40    27    1
    43    41    27    1
    44    42    20    1
@<TRIPOS>SUBSTRUCTURE
     1 UNL1        1 TEMP              0 ****  ****    0 ROOT

########## Name:	16	1041.07  0.918032
@<TRIPOS>MOLECULE
af2_protein.mol216	
 42 44 1 0 0
SMALL
GASTEIGER


@<TRIPOS>ATOM
      1 P          -0.2771   10.0915   -4.1765 P.3     1  UNL1        0.0544
      2 O           0.5682   10.4559   -5.3314 O.co2   1  UNL1       -0.6615
      3 O           0.1092   10.7517   -2.8835 O.co2   1  UNL1       -0.6615
      4 O          -0.5122    8.6347   -4.0443 O.co2   1  UNL1       -0.6615
      5 P          -3.1639   11.2007   -3.6336 P.3     1  UNL1        0.2491
      6 O          -2.4863   11.9261   -2.5183 O.co2   1  UNL1       -0.6337
      7 O          -4.1687   10.1570   -3.2939 O.co2   1  UNL1       -0.6337
      8 O          -1.7574   10.7323   -4.5050 O.3     1  UNL1       -0.0930
      9 O          -3.8776   12.3162   -4.5805 O.3     1  UNL1       -0.2057
     10 C          -4.7047   13.3190   -4.0239 C.3     1  UNL1        0.1232
     11 C          -5.8868   12.5947   -3.4496 C.3     1  UNL1        0.1214
     12 O          -5.5676   12.3593   -2.0742 O.3     1  UNL1       -0.3453
     13 C          -7.1893   13.4404   -3.4673 C.3     1  UNL1        0.1593
     14 O          -8.3349   12.5597   -3.6524 O.3     1  UNL1       -0.2421
     15 P          -8.5084   11.6398   -5.0808 P.3     1  UNL1       -0.0004
     16 O          -9.9134   11.9544   -5.4408 O.co2   1  UNL1       -0.6646
     17 O          -7.4798   12.2320   -5.9734 O.co2   1  UNL1       -0.6646
     18 O          -8.2069   10.2247   -4.7058 O.co2   1  UNL1       -0.6646
     19 C          -7.1683   14.0356   -2.0646 C.3     1  UNL1        0.1329
     20 O          -8.4893   14.4643   -1.6659 O.3     1  UNL1       -0.3845
     21 C          -6.7181   12.7511   -1.3411 C.3     1  UNL1        0.1668
     22 N          -6.2316   12.9041    0.0486 N.ar    1  UNL1       -0.2855
     23 C          -6.8747   12.3445    1.1242 C.ar    1  UNL1        0.1004
     24 N          -6.3098   12.5924    2.2687 N.ar    1  UNL1       -0.2306
     25 C          -5.1709   13.3985    1.9488 C.ar    1  UNL1        0.1473
     26 C          -4.1240   13.9891    2.7777 C.ar    1  UNL1        0.1472
     27 N          -4.1430   13.9235    4.1232 N.pl3   1  UNL1       -0.3413
     28 N          -3.1455   14.6857    2.1418 N.ar    1  UNL1       -0.2188
     29 C          -3.2217   14.7997    0.8077 C.ar    1  UNL1        0.1205
     30 N          -4.1296   14.3202   -0.0766 N.ar    1  UNL1       -0.2159
     31 C          -5.1101   13.5991    0.5740 C.ar    1  UNL1        0.1674
     32 H          -4.0832   13.7253   -3.2259 H       1  UNL1        0.0631
     33 H          -5.0397   14.1200   -4.6827 H       1  UNL1        0.0631
     34 H          -6.0416   11.6495   -3.9699 H       1  UNL1        0.0650
     35 H          -7.1519   14.2150   -4.2331 H       1  UNL1        0.0694
     36 H          -6.4494   14.8546   -2.0436 H       1  UNL1        0.0667
     37 H          -7.4914   11.9849   -1.3974 H       1  UNL1        0.0866
     38 H          -7.7714   11.7502    1.0283 H       1  UNL1        0.1030
     39 H          -2.4220   15.3723    0.3615 H       1  UNL1        0.1048
     40 H          -3.9218   13.0555    4.5898 H       1  UNL1        0.1438
     41 H          -4.3787   14.7424    4.6653 H       1  UNL1        0.1438
     42 H          -8.5505   14.4643   -0.7079 H       1  UNL1        0.2101
@<TRIPOS>BOND
     1     1     2    1
     2     1     3    1
     3     1     4    1
     4     1     8    1
     5     5     6    1
     6     5     7    1
     7     5     8    1
     8     5     9    1
     9     9    10    1
    10    10    11    1
    11    11    12    1
    12    11    13    1
    13    12    21    1
    14    13    14    1
    15    13    19    1
    16    14    15    1
    17    15    16    1
    18    15    17    1
    19    15    18    1
    20    19    20    1
    21    19    21    1
    22    21    22    1
    23    22    23   ar
    24    22    31   ar
    25    23    24   ar
    26    24    25   ar
    27    25    26   ar
    28    25    31   ar
    29    26    27    1
    30    26    28   ar
    31    28    29   ar
    32    29    30   ar
    33    30    31   ar
    34    32    10    1
    35    33    10    1
    36    11    34    1
    37    13    35    1
    38    19    36    1
    39    21    37    1
    40    38    23    1
    41    39    29    1
    42    40    27    1
    43    41    27    1
    44    42    20    1
@<TRIPOS>SUBSTRUCTURE
     1 UNL1        1 TEMP              0 ****  ****    0 ROOT

########## Name:	17	1022.23  0.91631
@<TRIPOS>MOLECULE
af2_protein.mol217	
 42 44 1 0 0
SMALL
GASTEIGER


@<TRIPOS>ATOM
      1 P           0.0293    9.9201   -4.2517 P.3     1  UNL1        0.0544
      2 O           0.6446    9.8996   -5.5941 O.co2   1  UNL1       -0.6615
      3 O           0.6658   10.8775   -3.2846 O.co2   1  UNL1       -0.6615
      4 O          -0.2000    8.5732   -3.6790 O.co2   1  UNL1       -0.6615
      5 P          -2.7404   11.1995   -3.5094 P.3     1  UNL1        0.2491
      6 O          -1.9698   12.0949   -2.5964 O.co2   1  UNL1       -0.6337
      7 O          -3.7173   10.2488   -2.9126 O.co2   1  UNL1       -0.6337
      8 O          -1.4759   10.5481   -4.4756 O.3     1  UNL1       -0.0930
      9 O          -3.6793   12.0135   -4.5613 O.3     1  UNL1       -0.2057
     10 C          -4.4986   13.0811   -4.1273 C.3     1  UNL1        0.1232
     11 C          -5.7491   12.4416   -3.5990 C.3     1  UNL1        0.1214
     12 O          -5.5386   12.2802   -2.1923 O.3     1  UNL1       -0.3453
     13 C          -7.0087   13.3354   -3.7623 C.3     1  UNL1        0.1593
     14 O          -8.1759   12.4910   -3.9780 O.3     1  UNL1       -0.2421
     15 P          -8.2604   11.4438   -5.3245 P.3     1  UNL1       -0.0004
     16 O          -9.6158   11.7645   -5.8369 O.co2   1  UNL1       -0.6646
     17 O          -7.1364   11.9164   -6.1724 O.co2   1  UNL1       -0.6646
     18 O          -8.0471   10.0629   -4.7941 O.co2   1  UNL1       -0.6646
     19 C          -7.0606   14.0159   -2.3998 C.3     1  UNL1        0.1329
     20 O          -8.3863   14.5207   -2.1251 O.3     1  UNL1       -0.3845
     21 C          -6.7196   12.7623   -1.5700 C.3     1  UNL1        0.1668
     22 N          -6.3262   12.9826   -0.1601 N.ar    1  UNL1       -0.2855
     23 C          -7.1600   12.7032    0.8937 C.ar    1  UNL1        0.1004
     24 N          -6.6501   12.9694    2.0596 N.ar    1  UNL1       -0.2306
     25 C          -5.3422   13.4798    1.7801 C.ar    1  UNL1        0.1473
     26 C          -4.2636   13.9413    2.6494 C.ar    1  UNL1        0.1472
     27 N          -4.4057   14.0473    3.9850 N.pl3   1  UNL1       -0.3413
     28 N          -3.1097   14.3394    2.0518 N.ar    1  UNL1       -0.2188
     29 C          -3.0508   14.3014    0.7125 C.ar    1  UNL1        0.1205
     30 N          -3.9657   13.9124   -0.2084 N.ar    1  UNL1       -0.2159
     31 C          -5.1280   13.4928    0.4062 C.ar    1  UNL1        0.1674
     32 H          -3.9178   13.5116   -3.3115 H       1  UNL1        0.0631
     33 H          -4.7507   13.8520   -4.8554 H       1  UNL1        0.0631
     34 H          -5.9083   11.4725   -4.0720 H       1  UNL1        0.0650
     35 H          -6.8577   14.0289   -4.5895 H       1  UNL1        0.0694
     36 H          -6.3001   14.7904   -2.3009 H       1  UNL1        0.0667
     37 H          -7.6325   12.1695   -1.6282 H       1  UNL1        0.0866
     38 H          -8.1528   12.2976    0.7656 H       1  UNL1        0.1030
     39 H          -2.1130   14.6388    0.2965 H       1  UNL1        0.1048
     40 H          -4.4152   13.2166    4.5594 H       1  UNL1        0.1438
     41 H          -4.5028   14.9575    4.4118 H       1  UNL1        0.1438
     42 H          -8.5396   14.5194   -1.1774 H       1  UNL1        0.2101
@<TRIPOS>BOND
     1     1     2    1
     2     1     3    1
     3     1     4    1
     4     1     8    1
     5     5     6    1
     6     5     7    1
     7     5     8    1
     8     5     9    1
     9     9    10    1
    10    10    11    1
    11    11    12    1
    12    11    13    1
    13    12    21    1
    14    13    14    1
    15    13    19    1
    16    14    15    1
    17    15    16    1
    18    15    17    1
    19    15    18    1
    20    19    20    1
    21    19    21    1
    22    21    22    1
    23    22    23   ar
    24    22    31   ar
    25    23    24   ar
    26    24    25   ar
    27    25    26   ar
    28    25    31   ar
    29    26    27    1
    30    26    28   ar
    31    28    29   ar
    32    29    30   ar
    33    30    31   ar
    34    32    10    1
    35    33    10    1
    36    11    34    1
    37    13    35    1
    38    19    36    1
    39    21    37    1
    40    38    23    1
    41    39    29    1
    42    40    27    1
    43    41    27    1
    44    42    20    1
@<TRIPOS>SUBSTRUCTURE
     1 UNL1        1 TEMP              0 ****  ****    0 ROOT

########## Name:	18	1068.79  0.915075
@<TRIPOS>MOLECULE
af2_protein.mol218	
 42 44 1 0 0
SMALL
GASTEIGER


@<TRIPOS>ATOM
      1 P          -1.0464    9.3828   -5.3393 P.3     1  UNL1        0.0544
      2 O          -1.1346    9.0724   -6.7804 O.co2   1  UNL1       -0.6615
      3 O           0.0729   10.3124   -4.9654 O.co2   1  UNL1       -0.6615
      4 O          -1.1358    8.1902   -4.4649 O.co2   1  UNL1       -0.6615
      5 P          -2.9459   11.3361   -3.7787 P.3     1  UNL1        0.2491
      6 O          -2.1287   12.2506   -2.9273 O.co2   1  UNL1       -0.6337
      7 O          -3.6281   10.1836   -3.1300 O.co2   1  UNL1       -0.6337
      8 O          -2.3988   10.2587   -5.0022 O.3     1  UNL1       -0.0930
      9 O          -4.0646   12.2589   -4.5185 O.3     1  UNL1       -0.2057
     10 C          -4.8629   13.1632   -3.7807 C.3     1  UNL1        0.1232
     11 C          -5.9621   12.3357   -3.1817 C.3     1  UNL1        0.1214
     12 O          -5.5815   12.1109   -1.8202 O.3     1  UNL1       -0.3453
     13 C          -7.3304   13.0697   -3.1474 C.3     1  UNL1        0.1593
     14 O          -8.4040   12.0987   -3.3109 O.3     1  UNL1       -0.2421
     15 P          -8.5468   11.1871   -4.7480 P.3     1  UNL1       -0.0004
     16 O          -9.9894   11.3680   -5.0455 O.co2   1  UNL1       -0.6646
     17 O          -7.6187   11.8901   -5.6700 O.co2   1  UNL1       -0.6646
     18 O          -8.0939    9.8030   -4.4118 O.co2   1  UNL1       -0.6646
     19 C          -7.3149   13.6473   -1.7373 C.3     1  UNL1        0.1329
     20 O          -8.6539   13.9591   -1.2926 O.3     1  UNL1       -0.3845
     21 C          -6.7370   12.3961   -1.0469 C.3     1  UNL1        0.1668
     22 N          -6.2216   12.5721    0.3295 N.ar    1  UNL1       -0.2855
     23 C          -6.7697   11.9325    1.4131 C.ar    1  UNL1        0.1004
     24 N          -6.1940   12.2151    2.5440 N.ar    1  UNL1       -0.2306
     25 C          -5.1517   13.1360    2.2051 C.ar    1  UNL1        0.1473
     26 C          -4.1410   13.8130    3.0126 C.ar    1  UNL1        0.1472
     27 N          -4.1082   13.7221    4.3563 N.pl3   1  UNL1       -0.3413
     28 N          -3.2581   14.6146    2.3607 N.ar    1  UNL1       -0.2188
     29 C          -3.3900   14.7441    1.0324 C.ar    1  UNL1        0.1205
     30 N          -4.2753   14.1923    0.1674 N.ar    1  UNL1       -0.2159
     31 C          -5.1572   13.3659    0.8336 C.ar    1  UNL1        0.1674
     32 H          -4.2527   13.6102   -2.9958 H       1  UNL1        0.0631
     33 H          -5.2839   13.9415   -4.4170 H       1  UNL1        0.0631
     34 H          -6.0541   11.3872   -3.7110 H       1  UNL1        0.0650
     35 H          -7.3826   13.8552   -3.9013 H       1  UNL1        0.0694
     36 H          -6.6431   14.5000   -1.6396 H       1  UNL1        0.0667
     37 H          -7.4322   11.5579   -1.0947 H       1  UNL1        0.0866
     38 H          -7.6060   11.2537    1.3332 H       1  UNL1        0.1030
     39 H          -2.6663   15.4012    0.5732 H       1  UNL1        0.1048
     40 H          -3.7868   12.8723    4.7975 H       1  UNL1        0.1438
     41 H          -4.4053   14.5037    4.9227 H       1  UNL1        0.1438
     42 H          -8.7053   13.8623   -0.3388 H       1  UNL1        0.2101
@<TRIPOS>BOND
     1     1     2    1
     2     1     3    1
     3     1     4    1
     4     1     8    1
     5     5     6    1
     6     5     7    1
     7     5     8    1
     8     5     9    1
     9     9    10    1
    10    10    11    1
    11    11    12    1
    12    11    13    1
    13    12    21    1
    14    13    14    1
    15    13    19    1
    16    14    15    1
    17    15    16    1
    18    15    17    1
    19    15    18    1
    20    19    20    1
    21    19    21    1
    22    21    22    1
    23    22    23   ar
    24    22    31   ar
    25    23    24   ar
    26    24    25   ar
    27    25    26   ar
    28    25    31   ar
    29    26    27    1
    30    26    28   ar
    31    28    29   ar
    32    29    30   ar
    33    30    31   ar
    34    32    10    1
    35    33    10    1
    36    11    34    1
    37    13    35    1
    38    19    36    1
    39    21    37    1
    40    38    23    1
    41    39    29    1
    42    40    27    1
    43    41    27    1
    44    42    20    1
@<TRIPOS>SUBSTRUCTURE
     1 UNL1        1 TEMP              0 ****  ****    0 ROOT

########## Name:	19	1120.64  0.901371
@<TRIPOS>MOLECULE
af2_protein.mol219	
 42 44 1 0 0
SMALL
GASTEIGER


@<TRIPOS>ATOM
      1 P          -0.1651    9.8897   -4.0452 P.3     1  UNL1        0.0544
      2 O          -0.2236    8.6719   -3.2119 O.co2   1  UNL1       -0.6615
      3 O          -0.2485    9.6420   -5.5246 O.co2   1  UNL1       -0.6615
      4 O           0.9230   10.8210   -3.6664 O.co2   1  UNL1       -0.6615
      5 P          -2.3766   12.1056   -4.2859 P.3     1  UNL1        0.2491
      6 O          -2.3454   13.4427   -4.9496 O.co2   1  UNL1       -0.6337
      7 O          -1.5633   11.9050   -3.0560 O.co2   1  UNL1       -0.6337
      8 O          -1.5563   10.7060   -3.7159 O.3     1  UNL1       -0.0930
      9 O          -3.9466   11.8163   -3.9669 O.3     1  UNL1       -0.2057
     10 C          -4.7420   12.7790   -3.3036 C.3     1  UNL1        0.1232
     11 C          -5.9954   12.0591   -2.9006 C.3     1  UNL1        0.1214
     12 O          -5.9082   11.8917   -1.4816 O.3     1  UNL1       -0.3453
     13 C          -7.2860   12.8784   -3.1750 C.3     1  UNL1        0.1593
     14 O          -8.3745   11.9689   -3.5064 O.3     1  UNL1       -0.2421
     15 P          -8.4236   11.1790   -5.0198 P.3     1  UNL1       -0.0004
     16 O          -9.8089   11.4939   -5.4490 O.co2   1  UNL1       -0.6646
     17 O          -7.3535   11.8726   -5.7811 O.co2   1  UNL1       -0.6646
     18 O          -8.1084    9.7428   -4.7522 O.co2   1  UNL1       -0.6646
     19 C          -7.5065   13.5363   -1.8182 C.3     1  UNL1        0.1329
     20 O          -8.8802   13.9574   -1.6660 O.3     1  UNL1       -0.3845
     21 C          -7.1694   12.2942   -0.9698 C.3     1  UNL1        0.1668
     22 N          -6.9239   12.5186    0.4726 N.ar    1  UNL1       -0.2855
     23 C          -7.6535   11.8950    1.4538 C.ar    1  UNL1        0.1004
     24 N          -7.3049   12.2208    2.6632 N.ar    1  UNL1       -0.2306
     25 C          -6.2344   13.1566    2.4969 C.ar    1  UNL1        0.1473
     26 C          -5.4051   13.8782    3.4579 C.ar    1  UNL1        0.1472
     27 N          -5.6228   13.8236    4.7863 N.pl3   1  UNL1       -0.3413
     28 N          -4.4304   14.6828    2.9582 N.ar    1  UNL1       -0.2188
     29 C          -4.3137   14.7741    1.6253 C.ar    1  UNL1        0.1205
     30 N          -5.0114   14.1790    0.6275 N.ar    1  UNL1       -0.2159
     31 C          -5.9873   13.3500    1.1421 C.ar    1  UNL1        0.1674
     32 H          -4.2673   13.2324   -2.4333 H       1  UNL1        0.0631
     33 H          -4.9710   13.5433   -4.0462 H       1  UNL1        0.0631
     34 H          -6.0506   11.0887   -3.3939 H       1  UNL1        0.0650
     35 H          -7.2450   13.7218   -3.8642 H       1  UNL1        0.0694
     36 H          -6.8052   14.3078   -1.5007 H       1  UNL1        0.0667
     37 H          -7.8281   11.4390   -1.1210 H       1  UNL1        0.0866
     38 H          -8.4477   11.1950    1.2399 H       1  UNL1        0.1030
     39 H          -3.5288   15.4355    1.2894 H       1  UNL1        0.1048
     40 H          -5.3742   12.9935    5.3052 H       1  UNL1        0.1438
     41 H          -6.0347   14.6128    5.2634 H       1  UNL1        0.1438
     42 H          -9.1620   13.8098   -0.7602 H       1  UNL1        0.2101
@<TRIPOS>BOND
     1     1     2    1
     2     1     3    1
     3     1     4    1
     4     1     8    1
     5     5     6    1
     6     5     7    1
     7     5     8    1
     8     5     9    1
     9     9    10    1
    10    10    11    1
    11    11    12    1
    12    11    13    1
    13    12    21    1
    14    13    14    1
    15    13    19    1
    16    14    15    1
    17    15    16    1
    18    15    17    1
    19    15    18    1
    20    19    20    1
    21    19    21    1
    22    21    22    1
    23    22    23   ar
    24    22    31   ar
    25    23    24   ar
    26    24    25   ar
    27    25    26   ar
    28    25    31   ar
    29    26    27    1
    30    26    28   ar
    31    28    29   ar
    32    29    30   ar
    33    30    31   ar
    34    32    10    1
    35    33    10    1
    36    11    34    1
    37    13    35    1
    38    19    36    1
    39    21    37    1
    40    38    23    1
    41    39    29    1
    42    40    27    1
    43    41    27    1
    44    42    20    1
@<TRIPOS>SUBSTRUCTURE
     1 UNL1        1 TEMP              0 ****  ****    0 ROOT

########## Name:	0	1121.5  0.927808
@<TRIPOS>MOLECULE
af2_protein.mol20	
 42 44 1 0 0
SMALL
GASTEIGER


@<TRIPOS>ATOM
      1 P          -3.5949   13.7834    4.1992 P.3     1  UNL1        0.0544
      2 O          -4.1677   13.3501    5.4896 O.co2   1  UNL1       -0.6615
      3 O          -2.5296   12.8774    3.6502 O.co2   1  UNL1       -0.6615
      4 O          -3.2226   15.2169    4.1621 O.co2   1  UNL1       -0.6615
      5 P          -5.0013   13.5218    1.4041 P.3     1  UNL1        0.2491
      6 O          -3.9166   12.5812    0.9946 O.co2   1  UNL1       -0.6337
      7 O          -5.0870   14.8438    0.7265 O.co2   1  UNL1       -0.6337
      8 O          -4.8206   13.6348    3.1104 O.3     1  UNL1       -0.0930
      9 O          -6.4099   12.7329    1.1946 O.3     1  UNL1       -0.2057
     10 C          -6.6996   12.0756   -0.0234 C.3     1  UNL1        0.1232
     11 C          -6.5766   13.1257   -1.0882 C.3     1  UNL1        0.1214
     12 O          -5.3144   12.8912   -1.7213 O.3     1  UNL1       -0.3453
     13 C          -7.6602   13.0044   -2.1943 C.3     1  UNL1        0.1593
     14 O          -7.9913   14.3321   -2.6941 O.3     1  UNL1       -0.2421
     15 P          -8.6889   15.5042   -1.6664 P.3     1  UNL1       -0.0004
     16 O          -9.8135   15.9762   -2.5120 O.co2   1  UNL1       -0.6646
     17 O          -9.0837   14.7007   -0.4813 O.co2   1  UNL1       -0.6646
     18 O          -7.6085   16.4918   -1.3648 O.co2   1  UNL1       -0.6646
     19 C          -6.9150   12.1871   -3.2426 C.3     1  UNL1        0.1329
     20 O          -7.5186   12.3458   -4.5457 O.3     1  UNL1       -0.3845
     21 C          -5.5716   12.9324   -3.1166 C.3     1  UNL1        0.1668
     22 N          -4.3890   12.2830   -3.7257 N.ar    1  UNL1       -0.2855
     23 C          -3.6987   12.8362   -4.7751 C.ar    1  UNL1        0.1004
     24 N          -2.6944   12.1204   -5.1865 N.ar    1  UNL1       -0.2306
     25 C          -2.6949   10.9663   -4.3395 C.ar    1  UNL1        0.1473
     26 C          -1.8207    9.7988   -4.2731 C.ar    1  UNL1        0.1472
     27 N          -0.8352    9.5809   -5.1655 N.pl3   1  UNL1       -0.3413
     28 N          -2.0821    8.8797   -3.3066 N.ar    1  UNL1       -0.2188
     29 C          -3.1316    9.0975   -2.5005 C.ar    1  UNL1        0.1205
     30 N          -4.0233   10.1169   -2.4554 N.ar    1  UNL1       -0.2159
     31 C          -3.7412   11.0548   -3.4277 C.ar    1  UNL1        0.1674
     32 H          -5.9867   11.2701   -0.1996 H       1  UNL1        0.0631
     33 H          -7.7149   11.6797   -0.0030 H       1  UNL1        0.0631
     34 H          -6.5986   14.1208   -0.6438 H       1  UNL1        0.0650
     35 H          -8.5449   12.4805   -1.8327 H       1  UNL1        0.0694
     36 H          -6.8288   11.1387   -2.9574 H       1  UNL1        0.0667
     37 H          -5.6673   13.9619   -3.4615 H       1  UNL1        0.0866
     38 H          -3.9664   13.7832   -5.2200 H       1  UNL1        0.1030
     39 H          -3.2939    8.3282   -1.7601 H       1  UNL1        0.1048
     40 H           0.0130   10.1276   -5.1249 H       1  UNL1        0.1438
     41 H          -0.9447    8.8708   -5.8753 H       1  UNL1        0.1438
     42 H          -6.8482   12.2391   -5.2245 H       1  UNL1        0.2101
@<TRIPOS>BOND
     1     1     2    1
     2     1     3    1
     3     1     4    1
     4     1     8    1
     5     5     6    1
     6     5     7    1
     7     5     8    1
     8     5     9    1
     9     9    10    1
    10    10    11    1
    11    11    12    1
    12    11    13    1
    13    12    21    1
    14    13    14    1
    15    13    19    1
    16    14    15    1
    17    15    16    1
    18    15    17    1
    19    15    18    1
    20    19    20    1
    21    19    21    1
    22    21    22    1
    23    22    23   ar
    24    22    31   ar
    25    23    24   ar
    26    24    25   ar
    27    25    26   ar
    28    25    31   ar
    29    26    27    1
    30    26    28   ar
    31    28    29   ar
    32    29    30   ar
    33    30    31   ar
    34    32    10    1
    35    33    10    1
    36    11    34    1
    37    13    35    1
    38    19    36    1
    39    21    37    1
    40    38    23    1
    41    39    29    1
    42    40    27    1
    43    41    27    1
    44    42    20    1
@<TRIPOS>SUBSTRUCTURE
     1 UNL1        1 TEMP              0 ****  ****    0 ROOT

########## Name:	1	1107.34  0.914528
@<TRIPOS>MOLECULE
af2_protein.mol21	
 42 44 1 0 0
SMALL
GASTEIGER


@<TRIPOS>ATOM
      1 P          -0.2584   10.0449   -4.5293 P.3     1  UNL1        0.0544
      2 O           0.4675   10.4319   -5.7558 O.co2   1  UNL1       -0.6615
      3 O           0.2395   10.7004   -3.2726 O.co2   1  UNL1       -0.6615
      4 O          -0.4583    8.5836   -4.3895 O.co2   1  UNL1       -0.6615
      5 P          -3.1147   11.0581   -3.7086 P.3     1  UNL1        0.2491
      6 O          -2.4919   11.7221   -2.5253 O.co2   1  UNL1       -0.6337
      7 O          -4.0378    9.9143   -3.4760 O.co2   1  UNL1       -0.6337
      8 O          -1.7726   10.6652   -4.7092 O.3     1  UNL1       -0.0930
      9 O          -3.9112   12.2157   -4.5308 O.3     1  UNL1       -0.2057
     10 C          -4.8066   13.0890   -3.8712 C.3     1  UNL1        0.1232
     11 C          -5.8127   12.2026   -3.1977 C.3     1  UNL1        0.1214
     12 O          -5.4440   12.1769   -1.8148 O.3     1  UNL1       -0.3453
     13 C          -7.2604   12.7613   -3.2634 C.3     1  UNL1        0.1593
     14 O          -8.2035   11.6531   -3.3311 O.3     1  UNL1       -0.2421
     15 P          -8.1965   10.5791   -4.6589 P.3     1  UNL1       -0.0004
     16 O          -9.6420   10.5467   -4.9934 O.co2   1  UNL1       -0.6646
     17 O          -7.3363   11.2861   -5.6417 O.co2   1  UNL1       -0.6646
     18 O          -7.5881    9.3067   -4.1641 O.co2   1  UNL1       -0.6646
     19 C          -7.3526   13.4872   -1.9266 C.3     1  UNL1        0.1329
     20 O          -8.7308   13.6780   -1.5369 O.3     1  UNL1       -0.3845
     21 C          -6.6457   12.4001   -1.0932 C.3     1  UNL1        0.1668
     22 N          -6.1921   12.7880    0.2614 N.ar    1  UNL1       -0.2855
     23 C          -6.7012   12.2218    1.4033 C.ar    1  UNL1        0.1004
     24 N          -6.1918   12.6932    2.5026 N.ar    1  UNL1       -0.2306
     25 C          -5.2430   13.6762    2.0754 C.ar    1  UNL1        0.1473
     26 C          -4.3333   14.5469    2.8145 C.ar    1  UNL1        0.1472
     27 N          -4.3304   14.6153    4.1600 N.pl3   1  UNL1       -0.3413
     28 N          -3.5211   15.3589    2.0878 N.ar    1  UNL1       -0.2188
     29 C          -3.6270   15.3197    0.7514 C.ar    1  UNL1        0.1205
     30 N          -4.4235   14.5796   -0.0573 N.ar    1  UNL1       -0.2159
     31 C          -5.2326   13.7448    0.6864 C.ar    1  UNL1        0.1674
     32 H          -4.2761   13.6912   -3.1335 H       1  UNL1        0.0631
     33 H          -5.3019   13.7350   -4.5960 H       1  UNL1        0.0631
     34 H          -5.7749   11.1979   -3.6187 H       1  UNL1        0.0650
     35 H          -7.3875   13.4470   -4.1010 H       1  UNL1        0.0694
     36 H          -6.7961   14.4243   -1.9317 H       1  UNL1        0.0667
     37 H          -7.2470   11.4918   -1.0538 H       1  UNL1        0.0866
     38 H          -7.4586   11.4519    1.3898 H       1  UNL1        0.1030
     39 H          -2.9634   15.9939    0.2304 H       1  UNL1        0.1048
     40 H          -3.9342   13.8617    4.7033 H       1  UNL1        0.1438
     41 H          -4.7247   15.4202    4.6255 H       1  UNL1        0.1438
     42 H          -8.7935   13.6949   -0.5791 H       1  UNL1        0.2101
@<TRIPOS>BOND
     1     1     2    1
     2     1     3    1
     3     1     4    1
     4     1     8    1
     5     5     6    1
     6     5     7    1
     7     5     8    1
     8     5     9    1
     9     9    10    1
    10    10    11    1
    11    11    12    1
    12    11    13    1
    13    12    21    1
    14    13    14    1
    15    13    19    1
    16    14    15    1
    17    15    16    1
    18    15    17    1
    19    15    18    1
    20    19    20    1
    21    19    21    1
    22    21    22    1
    23    22    23   ar
    24    22    31   ar
    25    23    24   ar
    26    24    25   ar
    27    25    26   ar
    28    25    31   ar
    29    26    27    1
    30    26    28   ar
    31    28    29   ar
    32    29    30   ar
    33    30    31   ar
    34    32    10    1
    35    33    10    1
    36    11    34    1
    37    13    35    1
    38    19    36    1
    39    21    37    1
    40    38    23    1
    41    39    29    1
    42    40    27    1
    43    41    27    1
    44    42    20    1
@<TRIPOS>SUBSTRUCTURE
     1 UNL1        1 TEMP              0 ****  ****    0 ROOT

########## Name:	2	1081.06  0.927478
@<TRIPOS>MOLECULE
af2_protein.mol22	
 42 44 1 0 0
SMALL
GASTEIGER


@<TRIPOS>ATOM
      1 P          -1.5584    8.3427   -4.7192 P.3     1  UNL1        0.0544
      2 O          -0.6615    8.4651   -5.8861 O.co2   1  UNL1       -0.6615
      3 O          -0.9070    8.6252   -3.3952 O.co2   1  UNL1       -0.6615
      4 O          -2.3743    7.1061   -4.7199 O.co2   1  UNL1       -0.6615
      5 P          -3.7487   10.4303   -3.8805 P.3     1  UNL1        0.2491
      6 O          -2.9766   10.6716   -2.6257 O.co2   1  UNL1       -0.6337
      7 O          -5.0858    9.7854   -3.7778 O.co2   1  UNL1       -0.6337
      8 O          -2.6454    9.5686   -4.8790 O.3     1  UNL1       -0.0930
      9 O          -3.9182   11.8748   -4.6121 O.3     1  UNL1       -0.2057
     10 C          -4.3915   12.9993   -3.8974 C.3     1  UNL1        0.1232
     11 C          -5.7207   12.5897   -3.3341 C.3     1  UNL1        0.1214
     12 O          -5.4859   12.3068   -1.9506 O.3     1  UNL1       -0.3453
     13 C          -6.7813   13.7231   -3.3843 C.3     1  UNL1        0.1593
     14 O          -8.1024   13.1406   -3.5777 O.3     1  UNL1       -0.2421
     15 P          -8.4739   12.2687   -4.9984 P.3     1  UNL1       -0.0004
     16 O          -9.7694   12.8896   -5.3707 O.co2   1  UNL1       -0.6646
     17 O          -7.3339   12.6028   -5.8898 O.co2   1  UNL1       -0.6646
     18 O          -8.5026   10.8262   -4.6081 O.co2   1  UNL1       -0.6646
     19 C          -6.6365   14.3185   -1.9890 C.3     1  UNL1        0.1329
     20 O          -7.8209   15.0584   -1.6181 O.3     1  UNL1       -0.3845
     21 C          -6.5182   12.9753   -1.2420 C.3     1  UNL1        0.1668
     22 N          -6.0277   13.0294    0.1536 N.ar    1  UNL1       -0.2855
     23 C          -6.8009   12.6584    1.2252 C.ar    1  UNL1        0.1004
     24 N          -6.2084   12.7819    2.3758 N.ar    1  UNL1       -0.2306
     25 C          -4.9048   13.2853    2.0651 C.ar    1  UNL1        0.1473
     26 C          -3.7577   13.6203    2.9041 C.ar    1  UNL1        0.1472
     27 N          -3.8100   13.5830    4.2498 N.pl3   1  UNL1       -0.3413
     28 N          -2.6320   14.0509    2.2761 N.ar    1  UNL1       -0.2188
     29 C          -2.6606   14.1582    0.9396 C.ar    1  UNL1        0.1205
     30 N          -3.6454   13.8966    0.0462 N.ar    1  UNL1       -0.2159
     31 C          -4.7791   13.4430    0.6892 C.ar    1  UNL1        0.1674
     32 H          -3.7013   13.2573   -3.0941 H       1  UNL1        0.0631
     33 H          -4.5153   13.8466   -4.5717 H       1  UNL1        0.0631
     34 H          -6.0914   11.7010   -3.8450 H       1  UNL1        0.0650
     35 H          -6.5492   14.4550   -4.1580 H       1  UNL1        0.0694
     36 H          -5.7326   14.9200   -1.8936 H       1  UNL1        0.0667
     37 H          -7.4522   12.4166   -1.3017 H       1  UNL1        0.0866
     38 H          -7.8129   12.2955    1.1216 H       1  UNL1        0.1030
     39 H          -1.7408   14.5145    0.4999 H       1  UNL1        0.1048
     40 H          -3.8103   12.6950    4.7310 H       1  UNL1        0.1438
     41 H          -3.8489   14.4433    4.7776 H       1  UNL1        0.1438
     42 H          -7.9300   15.0314   -0.6647 H       1  UNL1        0.2101
@<TRIPOS>BOND
     1     1     2    1
     2     1     3    1
     3     1     4    1
     4     1     8    1
     5     5     6    1
     6     5     7    1
     7     5     8    1
     8     5     9    1
     9     9    10    1
    10    10    11    1
    11    11    12    1
    12    11    13    1
    13    12    21    1
    14    13    14    1
    15    13    19    1
    16    14    15    1
    17    15    16    1
    18    15    17    1
    19    15    18    1
    20    19    20    1
    21    19    21    1
    22    21    22    1
    23    22    23   ar
    24    22    31   ar
    25    23    24   ar
    26    24    25   ar
    27    25    26   ar
    28    25    31   ar
    29    26    27    1
    30    26    28   ar
    31    28    29   ar
    32    29    30   ar
    33    30    31   ar
    34    32    10    1
    35    33    10    1
    36    11    34    1
    37    13    35    1
    38    19    36    1
    39    21    37    1
    40    38    23    1
    41    39    29    1
    42    40    27    1
    43    41    27    1
    44    42    20    1
@<TRIPOS>SUBSTRUCTURE
     1 UNL1        1 TEMP              0 ****  ****    0 ROOT

########## Name:	3	1152.33  0.924005
@<TRIPOS>MOLECULE
af2_protein.mol23	
 42 44 1 0 0
SMALL
GASTEIGER


@<TRIPOS>ATOM
      1 P          -0.0591   10.0895   -4.5698 P.3     1  UNL1        0.0544
      2 O           0.8228   10.6531   -5.6118 O.co2   1  UNL1       -0.6615
      3 O           0.3127   10.4648   -3.1634 O.co2   1  UNL1       -0.6615
      4 O          -0.3343    8.6435   -4.7381 O.co2   1  UNL1       -0.6615
      5 P          -2.9484   11.1094   -3.8839 P.3     1  UNL1        0.2491
      6 O          -2.4437   11.4988   -2.5338 O.co2   1  UNL1       -0.6337
      7 O          -3.9390   10.0030   -3.9789 O.co2   1  UNL1       -0.6337
      8 O          -1.5143   10.8270   -4.7897 O.3     1  UNL1       -0.0930
      9 O          -3.5930   12.4487   -4.5479 O.3     1  UNL1       -0.2057
     10 C          -4.5236   13.2376   -3.8331 C.3     1  UNL1        0.1232
     11 C          -5.6384   12.3060   -3.4574 C.3     1  UNL1        0.1214
     12 O          -5.4379   11.9981   -2.0739 O.3     1  UNL1       -0.3453
     13 C          -7.0437   12.9575   -3.5706 C.3     1  UNL1        0.1593
     14 O          -8.0170   11.9437   -3.9537 O.3     1  UNL1       -0.2421
     15 P          -7.8966   11.1396   -5.4556 P.3     1  UNL1       -0.0004
     16 O          -9.2923   11.2621   -5.9452 O.co2   1  UNL1       -0.6646
     17 O          -6.8974   11.9626   -6.1835 O.co2   1  UNL1       -0.6646
     18 O          -7.4044    9.7611   -5.1534 O.co2   1  UNL1       -0.6646
     19 C          -7.2640   13.4241   -2.1367 C.3     1  UNL1        0.1329
     20 O          -8.6697   13.6252   -1.8696 O.3     1  UNL1       -0.3845
     21 C          -6.7066   12.1575   -1.4578 C.3     1  UNL1        0.1668
     22 N          -6.4016   12.2549   -0.0126 N.ar    1  UNL1       -0.2855
     23 C          -7.0657   11.5178    0.9358 C.ar    1  UNL1        0.1004
     24 N          -6.6715   11.7414    2.1544 N.ar    1  UNL1       -0.2306
     25 C          -5.6388   12.7251    2.0313 C.ar    1  UNL1        0.1473
     26 C          -4.7882   13.3823    3.0194 C.ar    1  UNL1        0.1472
     27 N          -4.9424   13.1967    4.3449 N.pl3   1  UNL1       -0.3413
     28 N          -3.8626   14.2632    2.5564 N.ar    1  UNL1       -0.2188
     29 C          -3.8105   14.4822    1.2343 C.ar    1  UNL1        0.1205
     30 N          -4.5352   13.9589    0.2158 N.ar    1  UNL1       -0.2159
     31 C          -5.4607   13.0523    0.6915 C.ar    1  UNL1        0.1674
     32 H          -4.0602   13.6559   -2.9395 H       1  UNL1        0.0631
     33 H          -4.9022   14.0381   -4.4685 H       1  UNL1        0.0631
     34 H          -5.5923   11.3978   -4.0583 H       1  UNL1        0.0650
     35 H          -7.0420   13.7949   -4.2684 H       1  UNL1        0.0694
     36 H          -6.6726   14.3084   -1.8997 H       1  UNL1        0.0667
     37 H          -7.3453   11.2978   -1.6606 H       1  UNL1        0.0866
     38 H          -7.8472   10.8136    0.6912 H       1  UNL1        0.1030
     39 H          -3.0625   15.1988    0.9290 H       1  UNL1        0.1048
     40 H          -4.6450   12.3311    4.7717 H       1  UNL1        0.1438
     41 H          -5.3556   13.9234    4.9118 H       1  UNL1        0.1438
     42 H          -8.8449   13.4661   -0.9392 H       1  UNL1        0.2101
@<TRIPOS>BOND
     1     1     2    1
     2     1     3    1
     3     1     4    1
     4     1     8    1
     5     5     6    1
     6     5     7    1
     7     5     8    1
     8     5     9    1
     9     9    10    1
    10    10    11    1
    11    11    12    1
    12    11    13    1
    13    12    21    1
    14    13    14    1
    15    13    19    1
    16    14    15    1
    17    15    16    1
    18    15    17    1
    19    15    18    1
    20    19    20    1
    21    19    21    1
    22    21    22    1
    23    22    23   ar
    24    22    31   ar
    25    23    24   ar
    26    24    25   ar
    27    25    26   ar
    28    25    31   ar
    29    26    27    1
    30    26    28   ar
    31    28    29   ar
    32    29    30   ar
    33    30    31   ar
    34    32    10    1
    35    33    10    1
    36    11    34    1
    37    13    35    1
    38    19    36    1
    39    21    37    1
    40    38    23    1
    41    39    29    1
    42    40    27    1
    43    41    27    1
    44    42    20    1
@<TRIPOS>SUBSTRUCTURE
     1 UNL1        1 TEMP              0 ****  ****    0 ROOT

########## Name:	4	1088.2  0.933144
@<TRIPOS>MOLECULE
af2_protein.mol24	
 42 44 1 0 0
SMALL
GASTEIGER


@<TRIPOS>ATOM
      1 P          -0.4040    8.8267   -3.5922 P.3     1  UNL1        0.0544
      2 O           0.6788    9.1028   -4.5578 O.co2   1  UNL1       -0.6615
      3 O          -0.1133    9.2594   -2.1833 O.co2   1  UNL1       -0.6615
      4 O          -0.9496    7.4523   -3.6833 O.co2   1  UNL1       -0.6615
      5 P          -3.0799   10.4507   -3.3450 P.3     1  UNL1        0.2491
      6 O          -2.6509   10.8660   -1.9765 O.co2   1  UNL1       -0.6337
      7 O          -4.2600    9.5539   -3.4769 O.co2   1  UNL1       -0.6337
      8 O          -1.6466    9.8074   -4.0441 O.3     1  UNL1       -0.0930
      9 O          -3.3640   11.8176   -4.1824 O.3     1  UNL1       -0.2057
     10 C          -4.1837   12.8388   -3.6487 C.3     1  UNL1        0.1232
     11 C          -5.4984   12.1831   -3.3433 C.3     1  UNL1        0.1214
     12 O          -5.5115   11.9800   -1.9264 O.3     1  UNL1       -0.3453
     13 C          -6.7212   13.0807   -3.6770 C.3     1  UNL1        0.1593
     14 O          -7.8353   12.2423   -4.0989 O.3     1  UNL1       -0.2421
     15 P          -7.7246   11.2861   -5.5096 P.3     1  UNL1       -0.0004
     16 O          -9.0064   11.6284   -6.1745 O.co2   1  UNL1       -0.6646
     17 O          -6.5075   11.8236   -6.1694 O.co2   1  UNL1       -0.6646
     18 O          -7.5588    9.8749   -5.0460 O.co2   1  UNL1       -0.6646
     19 C          -6.9909   13.7202   -2.3203 C.3     1  UNL1        0.1329
     20 O          -8.3460   14.2158   -2.2436 O.3     1  UNL1       -0.3845
     21 C          -6.7784   12.4427   -1.4844 C.3     1  UNL1        0.1668
     22 N          -6.6134   12.6210   -0.0242 N.ar    1  UNL1       -0.2855
     23 C          -7.5100   12.1241    0.8886 C.ar    1  UNL1        0.1004
     24 N          -7.2086   12.3859    2.1258 N.ar    1  UNL1       -0.2306
     25 C          -5.9897   13.1333    2.0564 C.ar    1  UNL1        0.1473
     26 C          -5.1315   13.7071    3.0889 C.ar    1  UNL1        0.1472
     27 N          -5.4586   13.6866    4.3956 N.pl3   1  UNL1       -0.3413
     28 N          -4.0020   14.3414    2.6777 N.ar    1  UNL1       -0.2188
     29 C          -3.7677   14.4147    1.3592 C.ar    1  UNL1        0.1205
     30 N          -4.4729   13.9442    0.3020 N.ar    1  UNL1       -0.2159
     31 C          -5.6088   13.2860    0.7277 C.ar    1  UNL1        0.1674
     32 H          -3.7410   13.2451   -2.7392 H       1  UNL1        0.0631
     33 H          -4.3219   13.6309   -4.3845 H       1  UNL1        0.0631
     34 H          -5.5759   11.2284   -3.8637 H       1  UNL1        0.0650
     35 H          -6.4752   13.8288   -4.4305 H       1  UNL1        0.0694
     36 H          -6.2596   14.4918   -2.0801 H       1  UNL1        0.0667
     37 H          -7.5543   11.7076   -1.6985 H       1  UNL1        0.0866
     38 H          -8.3888   11.5645    0.6038 H       1  UNL1        0.1030
     39 H          -2.8612   14.9387    1.0946 H       1  UNL1        0.1048
     40 H          -5.3908   12.8260    4.9199 H       1  UNL1        0.1438
     41 H          -5.7719   14.5319    4.8510 H       1  UNL1        0.1438
     42 H          -8.6468   14.1862   -1.3324 H       1  UNL1        0.2101
@<TRIPOS>BOND
     1     1     2    1
     2     1     3    1
     3     1     4    1
     4     1     8    1
     5     5     6    1
     6     5     7    1
     7     5     8    1
     8     5     9    1
     9     9    10    1
    10    10    11    1
    11    11    12    1
    12    11    13    1
    13    12    21    1
    14    13    14    1
    15    13    19    1
    16    14    15    1
    17    15    16    1
    18    15    17    1
    19    15    18    1
    20    19    20    1
    21    19    21    1
    22    21    22    1
    23    22    23   ar
    24    22    31   ar
    25    23    24   ar
    26    24    25   ar
    27    25    26   ar
    28    25    31   ar
    29    26    27    1
    30    26    28   ar
    31    28    29   ar
    32    29    30   ar
    33    30    31   ar
    34    32    10    1
    35    33    10    1
    36    11    34    1
    37    13    35    1
    38    19    36    1
    39    21    37    1
    40    38    23    1
    41    39    29    1
    42    40    27    1
    43    41    27    1
    44    42    20    1
@<TRIPOS>SUBSTRUCTURE
     1 UNL1        1 TEMP              0 ****  ****    0 ROOT

########## Name:	5	1091.76  0.923833
@<TRIPOS>MOLECULE
af2_protein.mol25	
 42 44 1 0 0
SMALL
GASTEIGER


@<TRIPOS>ATOM
      1 P          -0.3922    9.1044   -4.2014 P.3     1  UNL1        0.0544
      2 O           0.4416    9.2857   -5.4068 O.co2   1  UNL1       -0.6615
      3 O           0.1175    9.8066   -2.9750 O.co2   1  UNL1       -0.6615
      4 O          -0.7839    7.6975   -3.9521 O.co2   1  UNL1       -0.6615
      5 P          -3.1358   10.5302   -3.6549 P.3     1  UNL1        0.2491
      6 O          -2.4974   11.2188   -2.4941 O.co2   1  UNL1       -0.6337
      7 O          -4.2082    9.5341   -3.3866 O.co2   1  UNL1       -0.6337
      8 O          -1.8032    9.8860   -4.5302 O.3     1  UNL1       -0.0930
      9 O          -3.7331   11.6962   -4.6213 O.3     1  UNL1       -0.2057
     10 C          -4.5438   12.7292   -4.0967 C.3     1  UNL1        0.1232
     11 C          -5.6892   12.0380   -3.4172 C.3     1  UNL1        0.1214
     12 O          -5.4011   12.0943   -2.0161 O.3     1  UNL1       -0.3453
     13 C          -7.0483   12.7610   -3.6229 C.3     1  UNL1        0.1593
     14 O          -8.1200   11.7750   -3.6576 O.3     1  UNL1       -0.2421
     15 P          -8.1790   10.5910   -4.8869 P.3     1  UNL1       -0.0004
     16 O          -9.5969   10.7050   -5.3100 O.co2   1  UNL1       -0.6646
     17 O          -7.1846   11.0945   -5.8683 O.co2   1  UNL1       -0.6646
     18 O          -7.7651    9.3045   -4.2485 O.co2   1  UNL1       -0.6646
     19 C          -7.1184   13.6122   -2.3608 C.3     1  UNL1        0.1329
     20 O          -8.4799   14.0051   -2.0782 O.3     1  UNL1       -0.3845
     21 C          -6.6014   12.5279   -1.3949 C.3     1  UNL1        0.1668
     22 N          -6.1750   12.9800   -0.0514 N.ar    1  UNL1       -0.2855
     23 C          -6.8124   12.5874    1.0990 C.ar    1  UNL1        0.1004
     24 N          -6.3065   13.0918    2.1852 N.ar    1  UNL1       -0.2306
     25 C          -5.2186   13.9081    1.7386 C.ar    1  UNL1        0.1473
     26 C          -4.2461   14.7251    2.4588 C.ar    1  UNL1        0.1472
     27 N          -4.3064   14.9156    3.7912 N.pl3   1  UNL1       -0.3413
     28 N          -3.2994   15.3616    1.7202 N.ar    1  UNL1       -0.2188
     29 C          -3.3379   15.2133    0.3878 C.ar    1  UNL1        0.1205
     30 N          -4.1780   14.5051   -0.4054 N.ar    1  UNL1       -0.2159
     31 C          -5.1254   13.8472    0.3525 C.ar    1  UNL1        0.1674
     32 H          -3.9810   13.3271   -3.3797 H       1  UNL1        0.0631
     33 H          -4.9133   13.3617   -4.9038 H       1  UNL1        0.0631
     34 H          -5.7573   11.0018   -3.7487 H       1  UNL1        0.0650
     35 H          -7.0421   13.3775   -4.5217 H       1  UNL1        0.0694
     36 H          -6.4475   14.4699   -2.4090 H       1  UNL1        0.0667
     37 H          -7.3148   11.7074   -1.3179 H       1  UNL1        0.0866
     38 H          -7.6599   11.9179    1.1016 H       1  UNL1        0.1030
     39 H          -2.5670   15.7506   -0.1444 H       1  UNL1        0.1048
     40 H          -4.0391   14.1723    4.4204 H       1  UNL1        0.1438
     41 H          -4.6191   15.8020    4.1608 H       1  UNL1        0.1438
     42 H          -8.5909   14.1172   -1.1312 H       1  UNL1        0.2101
@<TRIPOS>BOND
     1     1     2    1
     2     1     3    1
     3     1     4    1
     4     1     8    1
     5     5     6    1
     6     5     7    1
     7     5     8    1
     8     5     9    1
     9     9    10    1
    10    10    11    1
    11    11    12    1
    12    11    13    1
    13    12    21    1
    14    13    14    1
    15    13    19    1
    16    14    15    1
    17    15    16    1
    18    15    17    1
    19    15    18    1
    20    19    20    1
    21    19    21    1
    22    21    22    1
    23    22    23   ar
    24    22    31   ar
    25    23    24   ar
    26    24    25   ar
    27    25    26   ar
    28    25    31   ar
    29    26    27    1
    30    26    28   ar
    31    28    29   ar
    32    29    30   ar
    33    30    31   ar
    34    32    10    1
    35    33    10    1
    36    11    34    1
    37    13    35    1
    38    19    36    1
    39    21    37    1
    40    38    23    1
    41    39    29    1
    42    40    27    1
    43    41    27    1
    44    42    20    1
@<TRIPOS>SUBSTRUCTURE
     1 UNL1        1 TEMP              0 ****  ****    0 ROOT

########## Name:	6	1157.4  0.928114
@<TRIPOS>MOLECULE
af2_protein.mol26	
 42 44 1 0 0
SMALL
GASTEIGER


@<TRIPOS>ATOM
      1 P          -0.3900    8.5891   -3.4946 P.3     1  UNL1        0.0544
      2 O           0.1404    7.3486   -2.8939 O.co2   1  UNL1       -0.6615
      3 O          -1.4634    8.3780   -4.5243 O.co2   1  UNL1       -0.6615
      4 O           0.6605    9.5395   -3.9281 O.co2   1  UNL1       -0.6615
      5 P          -2.3748   10.5825   -2.0998 P.3     1  UNL1        0.2491
      6 O          -3.3838   10.2425   -3.1464 O.co2   1  UNL1       -0.6337
      7 O          -1.8144   11.9608   -2.0758 O.co2   1  UNL1       -0.6337
      8 O          -1.1799    9.3580   -2.2720 O.3     1  UNL1       -0.0930
      9 O          -3.0701   10.2742   -0.6604 O.3     1  UNL1       -0.2057
     10 C          -4.3550   10.7776   -0.3522 C.3     1  UNL1        0.1232
     11 C          -4.2590   12.2648   -0.5281 C.3     1  UNL1        0.1214
     12 O          -4.8845   12.5487   -1.7840 O.3     1  UNL1       -0.3453
     13 C          -5.0434   13.0598    0.5511 C.3     1  UNL1        0.1593
     14 O          -4.3560   14.3154    0.8214 O.3     1  UNL1       -0.2421
     15 P          -2.7787   14.3251    1.4761 P.3     1  UNL1       -0.0004
     16 O          -2.9428   15.3112    2.5729 O.co2   1  UNL1       -0.6646
     17 O          -2.6020   12.9170    1.9139 O.co2   1  UNL1       -0.6646
     18 O          -1.8638   14.7044    0.3567 O.co2   1  UNL1       -0.6646
     19 C          -6.3670   13.2954   -0.1664 C.3     1  UNL1        0.1329
     20 O          -7.0814   14.4062    0.4199 O.3     1  UNL1       -0.3845
     21 C          -5.7574   13.6408   -1.5395 C.3     1  UNL1        0.1668
     22 N          -6.6791   13.6386   -2.6978 N.ar    1  UNL1       -0.2855
     23 C          -6.9646   14.7708   -3.4192 C.ar    1  UNL1        0.1004
     24 N          -7.8026   14.5817   -4.3951 N.ar    1  UNL1       -0.2306
     25 C          -8.1228   13.1875   -4.3387 C.ar    1  UNL1        0.1473
     26 C          -8.9870   12.3463   -5.1616 C.ar    1  UNL1        0.1472
     27 N          -9.7617   12.8467   -6.1437 N.pl3   1  UNL1       -0.3413
     28 N          -9.0442   11.0238   -4.8538 N.ar    1  UNL1       -0.2188
     29 C          -8.3242   10.5908   -3.8084 C.ar    1  UNL1        0.1205
     30 N          -7.4989   11.2516   -2.9608 N.ar    1  UNL1       -0.2159
     31 C          -7.4318   12.5901   -3.2902 C.ar    1  UNL1        0.1674
     32 H          -5.0992   10.3616   -1.0313 H       1  UNL1        0.0631
     33 H          -4.6135   10.5382    0.6792 H       1  UNL1        0.0631
     34 H          -3.2151   12.5779   -0.5453 H       1  UNL1        0.0650
     35 H          -5.1795   12.4741    1.4602 H       1  UNL1        0.0694
     36 H          -6.9766   12.3927   -0.2056 H       1  UNL1        0.0667
     37 H          -5.2009   14.5767   -1.4905 H       1  UNL1        0.0866
     38 H          -6.5311   15.7344   -3.1957 H       1  UNL1        0.1030
     39 H          -8.4185    9.5338   -3.6077 H       1  UNL1        0.1048
     40 H          -9.3446   13.1440   -7.0142 H       1  UNL1        0.1438
     41 H         -10.7596   12.9248   -6.0095 H       1  UNL1        0.1438
     42 H          -7.6238   14.8279   -0.2506 H       1  UNL1        0.2101
@<TRIPOS>BOND
     1     1     2    1
     2     1     3    1
     3     1     4    1
     4     1     8    1
     5     5     6    1
     6     5     7    1
     7     5     8    1
     8     5     9    1
     9     9    10    1
    10    10    11    1
    11    11    12    1
    12    11    13    1
    13    12    21    1
    14    13    14    1
    15    13    19    1
    16    14    15    1
    17    15    16    1
    18    15    17    1
    19    15    18    1
    20    19    20    1
    21    19    21    1
    22    21    22    1
    23    22    23   ar
    24    22    31   ar
    25    23    24   ar
    26    24    25   ar
    27    25    26   ar
    28    25    31   ar
    29    26    27    1
    30    26    28   ar
    31    28    29   ar
    32    29    30   ar
    33    30    31   ar
    34    32    10    1
    35    33    10    1
    36    11    34    1
    37    13    35    1
    38    19    36    1
    39    21    37    1
    40    38    23    1
    41    39    29    1
    42    40    27    1
    43    41    27    1
    44    42    20    1
@<TRIPOS>SUBSTRUCTURE
     1 UNL1        1 TEMP              0 ****  ****    0 ROOT

########## Name:	7	1096.71  0.931021
@<TRIPOS>MOLECULE
af2_protein.mol27	
 42 44 1 0 0
SMALL
GASTEIGER


@<TRIPOS>ATOM
      1 P          -1.9284    7.4865   -4.0002 P.3     1  UNL1        0.0544
      2 O          -0.9234    7.4063   -5.0794 O.co2   1  UNL1       -0.6615
      3 O          -1.3668    7.7991   -2.6423 O.co2   1  UNL1       -0.6615
      4 O          -2.8883    6.3580   -3.9928 O.co2   1  UNL1       -0.6615
      5 P          -3.9081    9.8780   -3.5309 P.3     1  UNL1        0.2491
      6 O          -3.2262   10.1301   -2.2268 O.co2   1  UNL1       -0.6337
      7 O          -5.3188    9.4046   -3.5138 O.co2   1  UNL1       -0.6337
      8 O          -2.8362    8.8137   -4.3526 O.3     1  UNL1       -0.0930
      9 O          -3.8314   11.2670   -4.3764 O.3     1  UNL1       -0.2057
     10 C          -4.2228   12.4943   -3.7934 C.3     1  UNL1        0.1232
     11 C          -5.6372   12.2909   -3.3353 C.3     1  UNL1        0.1214
     12 O          -5.5628   12.0977   -1.9189 O.3     1  UNL1       -0.3453
     13 C          -6.5401   13.5326   -3.5697 C.3     1  UNL1        0.1593
     14 O          -7.9010   13.0947   -3.8495 O.3     1  UNL1       -0.2421
     15 P          -8.2506   12.1579   -5.2341 P.3     1  UNL1       -0.0004
     16 O          -9.4208   12.8933   -5.7747 O.co2   1  UNL1       -0.6646
     17 O          -7.0035   12.2817   -6.0311 O.co2   1  UNL1       -0.6646
     18 O          -8.4927   10.7659   -4.7467 O.co2   1  UNL1       -0.6646
     19 C          -6.4467   14.2201   -2.2128 C.3     1  UNL1        0.1329
     20 O          -7.5581   15.1215   -2.0133 O.3     1  UNL1       -0.3845
     21 C          -6.5627   12.9386   -1.3641 C.3     1  UNL1        0.1668
     22 N          -6.1949   13.0499    0.0654 N.ar    1  UNL1       -0.2855
     23 C          -7.1000   12.8616    1.0798 C.ar    1  UNL1        0.1004
     24 N          -6.6010   13.0094    2.2712 N.ar    1  UNL1       -0.2306
     25 C          -5.2227   13.3295    2.0546 C.ar    1  UNL1        0.1473
     26 C          -4.1218   13.5960    2.9759 C.ar    1  UNL1        0.1472
     27 N          -4.2972   13.6764    4.3092 N.pl3   1  UNL1       -0.3413
     28 N          -2.9001   13.8387    2.4321 N.ar    1  UNL1       -0.2188
     29 C          -2.7966   13.8380    1.0950 C.ar    1  UNL1        0.1205
     30 N          -3.7232   13.6206    0.1303 N.ar    1  UNL1       -0.2159
     31 C          -4.9570   13.3573    0.6899 C.ar    1  UNL1        0.1674
     32 H          -3.5798   12.7352   -2.9469 H       1  UNL1        0.0631
     33 H          -4.1802   13.2917   -4.5352 H       1  UNL1        0.0631
     34 H          -6.0686   11.4126   -3.8154 H       1  UNL1        0.0650
     35 H          -6.1513   14.1659   -4.3670 H       1  UNL1        0.0694
     36 H          -5.4871   14.7175   -2.0724 H       1  UNL1        0.0667
     37 H          -7.5499   12.4899   -1.4751 H       1  UNL1        0.0866
     38 H          -8.1361   12.6123    0.9037 H       1  UNL1        0.1030
     39 H          -1.8044   14.0467    0.7232 H       1  UNL1        0.1048
     40 H          -4.4505   12.8373    4.8500 H       1  UNL1        0.1438
     41 H          -4.2756   14.5759    4.7681 H       1  UNL1        0.1438
     42 H          -7.7538   15.1862   -1.0757 H       1  UNL1        0.2101
@<TRIPOS>BOND
     1     1     2    1
     2     1     3    1
     3     1     4    1
     4     1     8    1
     5     5     6    1
     6     5     7    1
     7     5     8    1
     8     5     9    1
     9     9    10    1
    10    10    11    1
    11    11    12    1
    12    11    13    1
    13    12    21    1
    14    13    14    1
    15    13    19    1
    16    14    15    1
    17    15    16    1
    18    15    17    1
    19    15    18    1
    20    19    20    1
    21    19    21    1
    22    21    22    1
    23    22    23   ar
    24    22    31   ar
    25    23    24   ar
    26    24    25   ar
    27    25    26   ar
    28    25    31   ar
    29    26    27    1
    30    26    28   ar
    31    28    29   ar
    32    29    30   ar
    33    30    31   ar
    34    32    10    1
    35    33    10    1
    36    11    34    1
    37    13    35    1
    38    19    36    1
    39    21    37    1
    40    38    23    1
    41    39    29    1
    42    40    27    1
    43    41    27    1
    44    42    20    1
@<TRIPOS>SUBSTRUCTURE
     1 UNL1        1 TEMP              0 ****  ****    0 ROOT

########## Name:	8	1121.95  0.919833
@<TRIPOS>MOLECULE
af2_protein.mol28	
 42 44 1 0 0
SMALL
GASTEIGER


@<TRIPOS>ATOM
      1 P          -2.2456    7.6085   -4.2190 P.3     1  UNL1        0.0544
      2 O          -1.4020    7.5111   -5.4273 O.co2   1  UNL1       -0.6615
      3 O          -1.5100    8.0061   -2.9710 O.co2   1  UNL1       -0.6615
      4 O          -3.1470    6.4489   -4.0249 O.co2   1  UNL1       -0.6615
      5 P          -4.2359    9.9494   -3.5729 P.3     1  UNL1        0.2491
      6 O          -3.3864   10.2882   -2.3927 O.co2   1  UNL1       -0.6337
      7 O          -5.6089    9.4285   -3.3325 O.co2   1  UNL1       -0.6337
      8 O          -3.2486    8.8845   -4.4939 O.3     1  UNL1       -0.0930
      9 O          -4.3379   11.2976   -4.4797 O.3     1  UNL1       -0.2057
     10 C          -4.6930   12.5374   -3.8998 C.3     1  UNL1        0.1232
     11 C          -6.0181   12.3072   -3.2344 C.3     1  UNL1        0.1214
     12 O          -5.7351   12.1858   -1.8365 O.3     1  UNL1       -0.3453
     13 C          -6.9960   13.5039   -3.3895 C.3     1  UNL1        0.1593
     14 O          -8.3635   13.0056   -3.4513 O.3     1  UNL1       -0.2421
     15 P          -8.8673   11.9911   -4.7294 P.3     1  UNL1       -0.0004
     16 O         -10.1320   12.6581   -5.1270 O.co2   1  UNL1       -0.6646
     17 O          -7.7526   12.1194   -5.7023 O.co2   1  UNL1       -0.6646
     18 O          -8.9797   10.6168   -4.1528 O.co2   1  UNL1       -0.6646
     19 C          -6.7390   14.2592   -2.0912 C.3     1  UNL1        0.1329
     20 O          -7.8472   15.1300   -1.7727 O.3     1  UNL1       -0.3845
     21 C          -6.6798   13.0172   -1.1802 C.3     1  UNL1        0.1668
     22 N          -6.1173   13.2106    0.1753 N.ar    1  UNL1       -0.2855
     23 C          -6.8603   13.0403    1.3166 C.ar    1  UNL1        0.1004
     24 N          -6.2034   13.2632    2.4163 N.ar    1  UNL1       -0.2306
     25 C          -4.8844   13.6202    1.9898 C.ar    1  UNL1        0.1473
     26 C          -3.6756   13.9695    2.7305 C.ar    1  UNL1        0.1472
     27 N          -3.6627   14.1083    4.0705 N.pl3   1  UNL1       -0.3413
     28 N          -2.5549   14.2279    2.0065 N.ar    1  UNL1       -0.2188
     29 C          -2.6428   14.1659    0.6697 C.ar    1  UNL1        0.1205
     30 N          -3.6874   13.8696   -0.1412 N.ar    1  UNL1       -0.2159
     31 C          -4.8170   13.5910    0.6011 C.ar    1  UNL1        0.1674
     32 H          -3.9466   12.8414   -3.1659 H       1  UNL1        0.0631
     33 H          -4.7894   13.2988   -4.6737 H       1  UNL1        0.0631
     34 H          -6.4767   11.3921   -3.6091 H       1  UNL1        0.0650
     35 H          -6.7512   14.1108   -4.2611 H       1  UNL1        0.0694
     36 H          -5.7906   14.7961   -2.1120 H       1  UNL1        0.0667
     37 H          -7.6533   12.5296   -1.1284 H       1  UNL1        0.0866
     38 H          -7.8996   12.7468    1.3025 H       1  UNL1        0.1030
     39 H          -1.7231   14.3907    0.1502 H       1  UNL1        0.1048
     40 H          -3.7026   13.2917    4.6634 H       1  UNL1        0.1438
     41 H          -3.6134   15.0292    4.4823 H       1  UNL1        0.1438
     42 H          -7.9099   15.2333   -0.8203 H       1  UNL1        0.2101
@<TRIPOS>BOND
     1     1     2    1
     2     1     3    1
     3     1     4    1
     4     1     8    1
     5     5     6    1
     6     5     7    1
     7     5     8    1
     8     5     9    1
     9     9    10    1
    10    10    11    1
    11    11    12    1
    12    11    13    1
    13    12    21    1
    14    13    14    1
    15    13    19    1
    16    14    15    1
    17    15    16    1
    18    15    17    1
    19    15    18    1
    20    19    20    1
    21    19    21    1
    22    21    22    1
    23    22    23   ar
    24    22    31   ar
    25    23    24   ar
    26    24    25   ar
    27    25    26   ar
    28    25    31   ar
    29    26    27    1
    30    26    28   ar
    31    28    29   ar
    32    29    30   ar
    33    30    31   ar
    34    32    10    1
    35    33    10    1
    36    11    34    1
    37    13    35    1
    38    19    36    1
    39    21    37    1
    40    38    23    1
    41    39    29    1
    42    40    27    1
    43    41    27    1
    44    42    20    1
@<TRIPOS>SUBSTRUCTURE
     1 UNL1        1 TEMP              0 ****  ****    0 ROOT

########## Name:	9	1168.56  0.937513
@<TRIPOS>MOLECULE
af2_protein.mol29	
 42 44 1 0 0
SMALL
GASTEIGER


@<TRIPOS>ATOM
      1 P          -8.7817   14.1623   -6.5531 P.3     1  UNL1        0.0544
      2 O          -9.4921   13.4091   -7.6062 O.co2   1  UNL1       -0.6615
      3 O          -9.5864   14.4119   -5.3093 O.co2   1  UNL1       -0.6615
      4 O          -8.0813   15.3691   -7.0510 O.co2   1  UNL1       -0.6615
      5 P          -6.5623   12.9953   -4.6632 P.3     1  UNL1        0.2491
      6 O          -7.4800   13.2336   -3.5099 O.co2   1  UNL1       -0.6337
      7 O          -5.3123   13.7976   -4.7528 O.co2   1  UNL1       -0.6337
      8 O          -7.5833   13.1585   -6.0373 O.3     1  UNL1       -0.0930
      9 O          -6.1702   11.4155   -4.6319 O.3     1  UNL1       -0.2057
     10 C          -5.7086   10.8056   -3.4426 C.3     1  UNL1        0.1232
     11 C          -4.5113   11.6040   -3.0177 C.3     1  UNL1        0.1214
     12 O          -4.9612   12.4381   -1.9448 O.3     1  UNL1       -0.3453
     13 C          -3.3621   10.7271   -2.4496 C.3     1  UNL1        0.1593
     14 O          -2.0810   11.3401   -2.7738 O.3     1  UNL1       -0.2421
     15 P          -1.5886   11.5296   -4.3980 P.3     1  UNL1       -0.0004
     16 O          -0.2058   10.9951   -4.3298 O.co2   1  UNL1       -0.6646
     17 O          -2.5596   10.6781   -5.1314 O.co2   1  UNL1       -0.6646
     18 O          -1.7371   12.9831   -4.7129 O.co2   1  UNL1       -0.6646
     19 C          -3.6507   10.8024   -0.9552 C.3     1  UNL1        0.1329
     20 O          -2.4720   10.4784   -0.1849 O.3     1  UNL1       -0.3845
     21 C          -3.9861   12.3066   -0.9219 C.3     1  UNL1        0.1668
     22 N          -4.6615   12.8125    0.2943 N.ar    1  UNL1       -0.2855
     23 C          -4.0808   13.7259    1.1382 C.ar    1  UNL1        0.1004
     24 N          -4.8165   14.0470    2.1608 N.ar    1  UNL1       -0.2306
     25 C          -6.0162   13.2818    2.0044 C.ar    1  UNL1        0.1473
     26 C          -7.2373   13.1997    2.8007 C.ar    1  UNL1        0.1472
     27 N          -7.3781   13.8397    3.9778 N.pl3   1  UNL1       -0.3413
     28 N          -8.2232   12.3822    2.3458 N.ar    1  UNL1       -0.2188
     29 C          -7.9980   11.6956    1.2160 C.ar    1  UNL1        0.1205
     30 N          -6.9231   11.6659    0.3913 N.ar    1  UNL1       -0.2159
     31 C          -5.9335   12.5115    0.8496 C.ar    1  UNL1        0.1674
     32 H          -6.4806   10.8393   -2.6738 H       1  UNL1        0.0631
     33 H          -5.4201    9.7731   -3.6389 H       1  UNL1        0.0631
     34 H          -4.1490   12.2138   -3.8454 H       1  UNL1        0.0650
     35 H          -3.4205    9.7028   -2.8176 H       1  UNL1        0.0694
     36 H          -4.5050   10.1872   -0.6729 H       1  UNL1        0.0667
     37 H          -3.1035   12.9041   -1.1504 H       1  UNL1        0.0866
     38 H          -3.0986   14.1415    0.9676 H       1  UNL1        0.1030
     39 H          -8.8134   11.0565    0.9112 H       1  UNL1        0.1048
     40 H          -7.5205   14.8395    3.9954 H       1  UNL1        0.1438
     41 H          -7.3411   13.3197    4.8429 H       1  UNL1        0.1438
     42 H          -2.5007   10.9425    0.6550 H       1  UNL1        0.2101
@<TRIPOS>BOND
     1     1     2    1
     2     1     3    1
     3     1     4    1
     4     1     8    1
     5     5     6    1
     6     5     7    1
     7     5     8    1
     8     5     9    1
     9     9    10    1
    10    10    11    1
    11    11    12    1
    12    11    13    1
    13    12    21    1
    14    13    14    1
    15    13    19    1
    16    14    15    1
    17    15    16    1
    18    15    17    1
    19    15    18    1
    20    19    20    1
    21    19    21    1
    22    21    22    1
    23    22    23   ar
    24    22    31   ar
    25    23    24   ar
    26    24    25   ar
    27    25    26   ar
    28    25    31   ar
    29    26    27    1
    30    26    28   ar
    31    28    29   ar
    32    29    30   ar
    33    30    31   ar
    34    32    10    1
    35    33    10    1
    36    11    34    1
    37    13    35    1
    38    19    36    1
    39    21    37    1
    40    38    23    1
    41    39    29    1
    42    40    27    1
    43    41    27    1
    44    42    20    1
@<TRIPOS>SUBSTRUCTURE
     1 UNL1        1 TEMP              0 ****  ****    0 ROOT

########## Name:	10	1117.65  0.920895
@<TRIPOS>MOLECULE
af2_protein.mol210	
 42 44 1 0 0
SMALL
GASTEIGER


@<TRIPOS>ATOM
      1 P          -8.1685   13.0920   -7.0455 P.3     1  UNL1        0.0544
      2 O          -9.1155   12.2428   -7.7958 O.co2   1  UNL1       -0.6615
      3 O          -8.8054   13.9890   -6.0224 O.co2   1  UNL1       -0.6615
      4 O          -7.1817   13.7884   -7.9035 O.co2   1  UNL1       -0.6615
      5 P          -6.2766   12.1103   -4.7399 P.3     1  UNL1        0.2491
      6 O          -7.0295   12.9964   -3.8034 O.co2   1  UNL1       -0.6337
      7 O          -4.8570   12.4394   -5.0409 O.co2   1  UNL1       -0.6337
      8 O          -7.2783   12.0477   -6.1362 O.3     1  UNL1       -0.0930
      9 O          -6.3462   10.6063   -4.1204 O.3     1  UNL1       -0.2057
     10 C          -6.0161   10.3626   -2.7673 C.3     1  UNL1        0.1232
     11 C          -4.6218   10.8885   -2.5907 C.3     1  UNL1        0.1214
     12 O          -4.7623   12.1436   -1.9168 O.3     1  UNL1       -0.3453
     13 C          -3.7402    9.9897   -1.6812 C.3     1  UNL1        0.1593
     14 O          -2.3563   10.0571   -2.1308 O.3     1  UNL1       -0.2421
     15 P          -1.9137    9.5015   -3.6839 P.3     1  UNL1       -0.0004
     16 O          -0.7369    8.6612   -3.3498 O.co2   1  UNL1       -0.6646
     17 O          -3.1218    8.7535   -4.1158 O.co2   1  UNL1       -0.6646
     18 O          -1.6609   10.7223   -4.5082 O.co2   1  UNL1       -0.6646
     19 C          -3.9193   10.6766   -0.3327 C.3     1  UNL1        0.1329
     20 O          -2.8427   10.3341    0.5680 O.3     1  UNL1       -0.3845
     21 C          -3.8134   12.1206   -0.8615 C.3     1  UNL1        0.1668
     22 N          -4.2554   13.1991    0.0510 N.ar    1  UNL1       -0.2855
     23 C          -3.3979   14.1519    0.5415 C.ar    1  UNL1        0.1004
     24 N          -3.9598   15.0134    1.3368 N.ar    1  UNL1       -0.2306
     25 C          -5.3333   14.6145    1.3983 C.ar    1  UNL1        0.1473
     26 C          -6.4856   15.1725    2.1002 C.ar    1  UNL1        0.1472
     27 N          -6.3795   16.2055    2.9585 N.pl3   1  UNL1       -0.3413
     28 N          -7.6842   14.5593    1.9146 N.ar    1  UNL1       -0.2188
     29 C          -7.7202   13.4780    1.1219 C.ar    1  UNL1        0.1205
     30 N          -6.7410   12.8516    0.4254 N.ar    1  UNL1       -0.2159
     31 C          -5.5306   13.4900    0.6043 C.ar    1  UNL1        0.1674
     32 H          -6.7068   10.8872   -2.1071 H       1  UNL1        0.0631
     33 H          -6.0417    9.2924   -2.5625 H       1  UNL1        0.0631
     34 H          -4.1444   11.0303   -3.5603 H       1  UNL1        0.0650
     35 H          -4.1045    8.9627   -1.6589 H       1  UNL1        0.0694
     36 H          -4.8972   10.4719    0.1030 H       1  UNL1        0.0667
     37 H          -2.8108   12.3210   -1.2392 H       1  UNL1        0.0866
     38 H          -2.3483   14.1834    0.2889 H       1  UNL1        0.1030
     39 H          -8.6975   13.0295    1.0216 H       1  UNL1        0.1048
     40 H          -6.2323   17.1410    2.6073 H       1  UNL1        0.1438
     41 H          -6.4472   16.0445    3.9532 H       1  UNL1        0.1438
     42 H          -2.6962   11.0576    1.1818 H       1  UNL1        0.2101
@<TRIPOS>BOND
     1     1     2    1
     2     1     3    1
     3     1     4    1
     4     1     8    1
     5     5     6    1
     6     5     7    1
     7     5     8    1
     8     5     9    1
     9     9    10    1
    10    10    11    1
    11    11    12    1
    12    11    13    1
    13    12    21    1
    14    13    14    1
    15    13    19    1
    16    14    15    1
    17    15    16    1
    18    15    17    1
    19    15    18    1
    20    19    20    1
    21    19    21    1
    22    21    22    1
    23    22    23   ar
    24    22    31   ar
    25    23    24   ar
    26    24    25   ar
    27    25    26   ar
    28    25    31   ar
    29    26    27    1
    30    26    28   ar
    31    28    29   ar
    32    29    30   ar
    33    30    31   ar
    34    32    10    1
    35    33    10    1
    36    11    34    1
    37    13    35    1
    38    19    36    1
    39    21    37    1
    40    38    23    1
    41    39    29    1
    42    40    27    1
    43    41    27    1
    44    42    20    1
@<TRIPOS>SUBSTRUCTURE
     1 UNL1        1 TEMP              0 ****  ****    0 ROOT

########## Name:	11	1120.75  0.922961
@<TRIPOS>MOLECULE
af2_protein.mol211	
 42 44 1 0 0
SMALL
GASTEIGER


@<TRIPOS>ATOM
      1 P          -9.5295   13.6409    2.6808 P.3     1  UNL1        0.0544
      2 O         -10.5056   14.7357    2.8530 O.co2   1  UNL1       -0.6615
      3 O         -10.0250   12.4817    1.8637 O.co2   1  UNL1       -0.6615
      4 O          -8.8643   13.2302    3.9392 O.co2   1  UNL1       -0.6615
      5 P          -7.0485   13.7006    0.7572 P.3     1  UNL1        0.2491
      6 O          -7.6743   12.5860   -0.0143 O.co2   1  UNL1       -0.6337
      7 O          -5.7905   13.4277    1.5038 O.co2   1  UNL1       -0.6337
      8 O          -8.3271   14.2758    1.7527 O.3     1  UNL1       -0.0930
      9 O          -6.7792   14.9092   -0.2997 O.3     1  UNL1       -0.2057
     10 C          -6.1187   14.6672   -1.5263 C.3     1  UNL1        0.1232
     11 C          -4.8011   14.0495   -1.1605 C.3     1  UNL1        0.1214
     12 O          -4.9440   12.6485   -1.4172 O.3     1  UNL1       -0.3453
     13 C          -3.6258   14.5478   -2.0451 C.3     1  UNL1        0.1593
     14 O          -2.4026   14.5728   -1.2544 O.3     1  UNL1       -0.2421
     15 P          -2.2603   15.5986    0.1036 P.3     1  UNL1       -0.0004
     16 O          -0.9399   16.2224   -0.1607 O.co2   1  UNL1       -0.6646
     17 O          -3.4283   16.5028   -0.0508 O.co2   1  UNL1       -0.6646
     18 O          -2.3632   14.7169    1.3060 O.co2   1  UNL1       -0.6646
     19 C          -3.5778   13.4555   -3.1067 C.3     1  UNL1        0.1329
     20 O          -2.2882   13.4248   -3.7577 O.3     1  UNL1       -0.3845
     21 C          -3.7834   12.2710   -2.1419 C.3     1  UNL1        0.1668
     22 N          -4.1396   10.9695   -2.7504 N.ar    1  UNL1       -0.2855
     23 C          -3.3229    9.8689   -2.6760 C.ar    1  UNL1        0.1004
     24 N          -3.7937    8.8165   -3.2768 N.ar    1  UNL1       -0.2306
     25 C          -5.0531    9.2336   -3.8147 C.ar    1  UNL1        0.1473
     26 C          -6.0756    8.5249   -4.5788 C.ar    1  UNL1        0.1472
     27 N          -5.9098    7.2593   -5.0099 N.pl3   1  UNL1       -0.3413
     28 N          -7.1954    9.2189   -4.9132 N.ar    1  UNL1       -0.2188
     29 C          -7.2724   10.5045   -4.5390 C.ar    1  UNL1        0.1205
     30 N          -6.4067   11.2836   -3.8462 N.ar    1  UNL1       -0.2159
     31 C          -5.2804   10.5677   -3.4948 C.ar    1  UNL1        0.1674
     32 H          -6.7013   13.9829   -2.1432 H       1  UNL1        0.0631
     33 H          -5.9583   15.6057   -2.0568 H       1  UNL1        0.0631
     34 H          -4.5814   14.2211   -0.1067 H       1  UNL1        0.0650
     35 H          -3.8395   15.5227   -2.4831 H       1  UNL1        0.0694
     36 H          -4.3947   13.5458   -3.8226 H       1  UNL1        0.0667
     37 H          -2.9287   12.1641   -1.4740 H       1  UNL1        0.0866
     38 H          -2.3724    9.8766   -2.1632 H       1  UNL1        0.1030
     39 H          -8.1803   11.0047   -4.8420 H       1  UNL1        0.1048
     40 H          -5.9691    6.4913   -4.3567 H       1  UNL1        0.1438
     41 H          -5.7259    7.0785   -5.9864 H       1  UNL1        0.1438
     42 H          -2.0994   12.5309   -4.0525 H       1  UNL1        0.2101
@<TRIPOS>BOND
     1     1     2    1
     2     1     3    1
     3     1     4    1
     4     1     8    1
     5     5     6    1
     6     5     7    1
     7     5     8    1
     8     5     9    1
     9     9    10    1
    10    10    11    1
    11    11    12    1
    12    11    13    1
    13    12    21    1
    14    13    14    1
    15    13    19    1
    16    14    15    1
    17    15    16    1
    18    15    17    1
    19    15    18    1
    20    19    20    1
    21    19    21    1
    22    21    22    1
    23    22    23   ar
    24    22    31   ar
    25    23    24   ar
    26    24    25   ar
    27    25    26   ar
    28    25    31   ar
    29    26    27    1
    30    26    28   ar
    31    28    29   ar
    32    29    30   ar
    33    30    31   ar
    34    32    10    1
    35    33    10    1
    36    11    34    1
    37    13    35    1
    38    19    36    1
    39    21    37    1
    40    38    23    1
    41    39    29    1
    42    40    27    1
    43    41    27    1
    44    42    20    1
@<TRIPOS>SUBSTRUCTURE
     1 UNL1        1 TEMP              0 ****  ****    0 ROOT

########## Name:	12	1108.46  0.939546
@<TRIPOS>MOLECULE
af2_protein.mol212	
 42 44 1 0 0
SMALL
GASTEIGER


@<TRIPOS>ATOM
      1 P          -0.7526    9.4196   -4.8350 P.3     1  UNL1        0.0544
      2 O           0.1268    9.8317   -5.9476 O.co2   1  UNL1       -0.6615
      3 O          -0.2054    9.7034   -3.4650 O.co2   1  UNL1       -0.6615
      4 O          -1.2943    8.0481   -4.9782 O.co2   1  UNL1       -0.6615
      5 P          -3.3472   10.9276   -3.9116 P.3     1  UNL1        0.2491
      6 O          -2.6718   11.2024   -2.6088 O.co2   1  UNL1       -0.6337
      7 O          -4.5237   10.0165   -3.9224 O.co2   1  UNL1       -0.6337
      8 O          -2.0660   10.4072   -4.9335 O.3     1  UNL1       -0.0930
      9 O          -3.7950   12.3693   -4.5210 O.3     1  UNL1       -0.2057
     10 C          -4.5079   13.3012   -3.7319 C.3     1  UNL1        0.1232
     11 C          -5.7363   12.5777   -3.2635 C.3     1  UNL1        0.1214
     12 O          -5.4808   12.2199   -1.9012 O.3     1  UNL1       -0.3453
     13 C          -7.0073   13.4703   -3.2598 C.3     1  UNL1        0.1593
     14 O          -8.1740   12.6511   -3.5593 O.3     1  UNL1       -0.2421
     15 P          -8.3230   11.8592   -5.0650 P.3     1  UNL1       -0.0004
     16 O          -9.7098   12.2347   -5.4366 O.co2   1  UNL1       -0.6646
     17 O          -7.2563   12.5013   -5.8746 O.co2   1  UNL1       -0.6646
     18 O          -8.0614   10.4111   -4.8035 O.co2   1  UNL1       -0.6646
     19 C          -7.0220   13.9487   -1.8130 C.3     1  UNL1        0.1329
     20 O          -8.3425   14.3930   -1.4298 O.3     1  UNL1       -0.3845
     21 C          -6.6456   12.5939   -1.1816 C.3     1  UNL1        0.1668
     22 N          -6.2102   12.6155    0.2331 N.ar    1  UNL1       -0.2855
     23 C          -6.9148   11.9953    1.2344 C.ar    1  UNL1        0.1004
     24 N          -6.3881   12.1284    2.4155 N.ar    1  UNL1       -0.2306
     25 C          -5.2102   12.9143    2.2056 C.ar    1  UNL1        0.1473
     26 C          -4.1777   13.3961    3.1187 C.ar    1  UNL1        0.1472
     27 N          -4.2529   13.2226    4.4526 N.pl3   1  UNL1       -0.3413
     28 N          -3.1511   14.1046    2.5791 N.ar    1  UNL1       -0.2188
     29 C          -3.1697   14.3290    1.2570 C.ar    1  UNL1        0.1205
     30 N          -4.0574   13.9571    0.3031 N.ar    1  UNL1       -0.2159
     31 C          -5.0874   13.2231    0.8553 C.ar    1  UNL1        0.1674
     32 H          -3.9053   13.6180   -2.8805 H       1  UNL1        0.0631
     33 H          -4.7886   14.1649   -4.3344 H       1  UNL1        0.0631
     34 H          -5.9025   11.6841   -3.8652 H       1  UNL1        0.0650
     35 H          -6.9136   14.3035   -3.9562 H       1  UNL1        0.0694
     36 H          -6.2649   14.7104   -1.6272 H       1  UNL1        0.0667
     37 H          -7.4419   11.8644   -1.3294 H       1  UNL1        0.0866
     38 H          -7.8269   11.4449    1.0566 H       1  UNL1        0.1030
     39 H          -2.3335   14.9053    0.8895 H       1  UNL1        0.1048
     40 H          -4.0806   12.3120    4.8541 H       1  UNL1        0.1438
     41 H          -4.4817   14.0032    5.0512 H       1  UNL1        0.1438
     42 H          -8.4661   14.2547   -0.4879 H       1  UNL1        0.2101
@<TRIPOS>BOND
     1     1     2    1
     2     1     3    1
     3     1     4    1
     4     1     8    1
     5     5     6    1
     6     5     7    1
     7     5     8    1
     8     5     9    1
     9     9    10    1
    10    10    11    1
    11    11    12    1
    12    11    13    1
    13    12    21    1
    14    13    14    1
    15    13    19    1
    16    14    15    1
    17    15    16    1
    18    15    17    1
    19    15    18    1
    20    19    20    1
    21    19    21    1
    22    21    22    1
    23    22    23   ar
    24    22    31   ar
    25    23    24   ar
    26    24    25   ar
    27    25    26   ar
    28    25    31   ar
    29    26    27    1
    30    26    28   ar
    31    28    29   ar
    32    29    30   ar
    33    30    31   ar
    34    32    10    1
    35    33    10    1
    36    11    34    1
    37    13    35    1
    38    19    36    1
    39    21    37    1
    40    38    23    1
    41    39    29    1
    42    40    27    1
    43    41    27    1
    44    42    20    1
@<TRIPOS>SUBSTRUCTURE
     1 UNL1        1 TEMP              0 ****  ****    0 ROOT

########## Name:	13	1119.85  0.922348
@<TRIPOS>MOLECULE
af2_protein.mol213	
 42 44 1 0 0
SMALL
GASTEIGER


@<TRIPOS>ATOM
      1 P          -2.7096    7.1258   -3.6349 P.3     1  UNL1        0.0544
      2 O          -1.7000    6.8307   -4.6716 O.co2   1  UNL1       -0.6615
      3 O          -2.1426    7.4590   -2.2842 O.co2   1  UNL1       -0.6615
      4 O          -3.8155    6.1415   -3.5808 O.co2   1  UNL1       -0.6615
      5 P          -4.3520    9.7916   -3.4006 P.3     1  UNL1        0.2491
      6 O          -3.6728   10.0447   -2.0953 O.co2   1  UNL1       -0.6337
      7 O          -5.8144    9.5164   -3.3978 O.co2   1  UNL1       -0.6337
      8 O          -3.4176    8.5342   -4.1096 O.3     1  UNL1       -0.0930
      9 O          -4.0649   11.0912   -4.3383 O.3     1  UNL1       -0.2057
     10 C          -4.2974   12.3999   -3.8560 C.3     1  UNL1        0.1232
     11 C          -5.7368   12.4244   -3.4324 C.3     1  UNL1        0.1214
     12 O          -5.7232   12.3281   -2.0042 O.3     1  UNL1       -0.3453
     13 C          -6.4545   13.7563   -3.7832 C.3     1  UNL1        0.1593
     14 O          -7.8557   13.4874   -4.0771 O.3     1  UNL1       -0.2421
     15 P          -8.2981   12.5069   -5.4037 P.3     1  UNL1       -0.0004
     16 O          -9.3429   13.3521   -6.0333 O.co2   1  UNL1       -0.6646
     17 O          -7.0274   12.4013   -6.1652 O.co2   1  UNL1       -0.6646
     18 O          -8.7408   11.2004   -4.8285 O.co2   1  UNL1       -0.6646
     19 C          -6.2994   14.5231   -2.4754 C.3     1  UNL1        0.1329
     20 O          -7.2807   15.5791   -2.3768 O.3     1  UNL1       -0.3845
     21 C          -6.6107   13.3354   -1.5434 C.3     1  UNL1        0.1668
     22 N          -6.2649   13.5012   -0.1137 N.ar    1  UNL1       -0.2855
     23 C          -7.2110   13.5127    0.8805 C.ar    1  UNL1        0.1004
     24 N          -6.7247   13.6792    2.0747 N.ar    1  UNL1       -0.2306
     25 C          -5.3107   13.7926    1.8825 C.ar    1  UNL1        0.1473
     26 C          -4.2056   13.9749    2.8192 C.ar    1  UNL1        0.1472
     27 N          -4.3998   14.1766    4.1371 N.pl3   1  UNL1       -0.3413
     28 N          -2.9497   14.0089    2.3010 N.ar    1  UNL1       -0.2188
     29 C          -2.8158   13.8954    0.9714 C.ar    1  UNL1        0.1205
     30 N          -3.7404   13.7349   -0.0061 N.ar    1  UNL1       -0.2159
     31 C          -5.0116   13.6833    0.5288 C.ar    1  UNL1        0.1674
     32 H          -3.6476   12.6133   -3.0073 H       1  UNL1        0.0631
     33 H          -4.1280   13.1272   -4.6499 H       1  UNL1        0.0631
     34 H          -6.2735   11.5796   -3.8641 H       1  UNL1        0.0650
     35 H          -5.9636   14.2704   -4.6094 H       1  UNL1        0.0694
     36 H          -5.2841   14.8949   -2.3381 H       1  UNL1        0.0667
     37 H          -7.6473   13.0177   -1.6558 H       1  UNL1        0.0866
     38 H          -8.2671   13.3938    0.6877 H       1  UNL1        0.1030
     39 H          -1.7958   13.9396    0.6194 H       1  UNL1        0.1048
     40 H          -4.6798   13.4083    4.7298 H       1  UNL1        0.1438
     41 H          -4.2655   15.0963    4.5323 H       1  UNL1        0.1438
     42 H          -7.4877   15.7388   -1.4530 H       1  UNL1        0.2101
@<TRIPOS>BOND
     1     1     2    1
     2     1     3    1
     3     1     4    1
     4     1     8    1
     5     5     6    1
     6     5     7    1
     7     5     8    1
     8     5     9    1
     9     9    10    1
    10    10    11    1
    11    11    12    1
    12    11    13    1
    13    12    21    1
    14    13    14    1
    15    13    19    1
    16    14    15    1
    17    15    16    1
    18    15    17    1
    19    15    18    1
    20    19    20    1
    21    19    21    1
    22    21    22    1
    23    22    23   ar
    24    22    31   ar
    25    23    24   ar
    26    24    25   ar
    27    25    26   ar
    28    25    31   ar
    29    26    27    1
    30    26    28   ar
    31    28    29   ar
    32    29    30   ar
    33    30    31   ar
    34    32    10    1
    35    33    10    1
    36    11    34    1
    37    13    35    1
    38    19    36    1
    39    21    37    1
    40    38    23    1
    41    39    29    1
    42    40    27    1
    43    41    27    1
    44    42    20    1
@<TRIPOS>SUBSTRUCTURE
     1 UNL1        1 TEMP              0 ****  ****    0 ROOT

########## Name:	14	1076.78  0.922857
@<TRIPOS>MOLECULE
af2_protein.mol214	
 42 44 1 0 0
SMALL
GASTEIGER


@<TRIPOS>ATOM
      1 P          -0.6375   10.1872   -5.2730 P.3     1  UNL1        0.0544
      2 O          -0.0811   10.6287   -6.5678 O.co2   1  UNL1       -0.6615
      3 O          -0.0401   10.8618   -4.0710 O.co2   1  UNL1       -0.6615
      4 O          -0.7311    8.7152   -5.1339 O.co2   1  UNL1       -0.6615
      5 P          -3.4377   11.0145   -4.1183 P.3     1  UNL1        0.2491
      6 O          -2.7253   11.7060   -3.0032 O.co2   1  UNL1       -0.6337
      7 O          -4.2571    9.8138   -3.8001 O.co2   1  UNL1       -0.6337
      8 O          -2.1971   10.7139   -5.2705 O.3     1  UNL1       -0.0930
      9 O          -4.3914   12.1273   -4.8270 O.3     1  UNL1       -0.2057
     10 C          -5.2570   12.9379   -4.0568 C.3     1  UNL1        0.1232
     11 C          -6.1241   11.9852   -3.2872 C.3     1  UNL1        0.1214
     12 O          -5.5991   11.9709   -1.9556 O.3     1  UNL1       -0.3453
     13 C          -7.6010   12.4536   -3.1798 C.3     1  UNL1        0.1593
     14 O          -8.4768   11.2897   -3.1571 O.3     1  UNL1       -0.2421
     15 P          -8.5562   10.2293   -4.4935 P.3     1  UNL1       -0.0004
     16 O         -10.0258   10.1102   -4.6624 O.co2   1  UNL1       -0.6646
     17 O          -7.8583   10.9965   -5.5565 O.co2   1  UNL1       -0.6646
     18 O          -7.8193    8.9930   -4.0905 O.co2   1  UNL1       -0.6646
     19 C          -7.5839   13.1612   -1.8302 C.3     1  UNL1        0.1329
     20 O          -8.9177   13.2630   -1.2839 O.3     1  UNL1       -0.3845
     21 C          -6.7219   12.1131   -1.0991 C.3     1  UNL1        0.1668
     22 N          -6.1411   12.5171    0.2011 N.ar    1  UNL1       -0.2855
     23 C          -6.4813   11.9109    1.3845 C.ar    1  UNL1        0.1004
     24 N          -5.8793   12.4038    2.4261 N.ar    1  UNL1       -0.2306
     25 C          -5.0467   13.4473    1.9092 C.ar    1  UNL1        0.1473
     26 C          -4.1132   14.3665    2.5537 C.ar    1  UNL1        0.1472
     27 N          -3.9609   14.4236    3.8911 N.pl3   1  UNL1       -0.3413
     28 N          -3.4400   15.2333    1.7521 N.ar    1  UNL1       -0.2188
     29 C          -3.6951   15.1987    0.4359 C.ar    1  UNL1        0.1205
     30 N          -4.5323   14.4174   -0.2886 N.ar    1  UNL1       -0.2159
     31 C          -5.1991   13.5280    0.5293 C.ar    1  UNL1        0.1674
     32 H          -4.6833   13.5656   -3.3748 H       1  UNL1        0.0631
     33 H          -5.8700   13.5579   -4.7108 H       1  UNL1        0.0631
     34 H          -6.0737   10.9883   -3.7252 H       1  UNL1        0.0650
     35 H          -7.8643   13.1371   -3.9870 H       1  UNL1        0.0694
     36 H          -7.0895   14.1311   -1.8840 H       1  UNL1        0.0667
     37 H          -7.2586   11.1690   -1.0057 H       1  UNL1        0.0866
     38 H          -7.1872   11.0957    1.4452 H       1  UNL1        0.1030
     39 H          -3.1374   15.9171   -0.1466 H       1  UNL1        0.1048
     40 H          -3.4603   13.6915    4.3743 H       1  UNL1        0.1438
     41 H          -4.3475   15.1987    4.4106 H       1  UNL1        0.1438
     42 H          -8.8715   13.2680   -0.3250 H       1  UNL1        0.2101
@<TRIPOS>BOND
     1     1     2    1
     2     1     3    1
     3     1     4    1
     4     1     8    1
     5     5     6    1
     6     5     7    1
     7     5     8    1
     8     5     9    1
     9     9    10    1
    10    10    11    1
    11    11    12    1
    12    11    13    1
    13    12    21    1
    14    13    14    1
    15    13    19    1
    16    14    15    1
    17    15    16    1
    18    15    17    1
    19    15    18    1
    20    19    20    1
    21    19    21    1
    22    21    22    1
    23    22    23   ar
    24    22    31   ar
    25    23    24   ar
    26    24    25   ar
    27    25    26   ar
    28    25    31   ar
    29    26    27    1
    30    26    28   ar
    31    28    29   ar
    32    29    30   ar
    33    30    31   ar
    34    32    10    1
    35    33    10    1
    36    11    34    1
    37    13    35    1
    38    19    36    1
    39    21    37    1
    40    38    23    1
    41    39    29    1
    42    40    27    1
    43    41    27    1
    44    42    20    1
@<TRIPOS>SUBSTRUCTURE
     1 UNL1        1 TEMP              0 ****  ****    0 ROOT

########## Name:	15	1112.49  0.923048
@<TRIPOS>MOLECULE
af2_protein.mol215	
 42 44 1 0 0
SMALL
GASTEIGER


@<TRIPOS>ATOM
      1 P           0.4957   11.7904   -3.8829 P.3     1  UNL1        0.0544
      2 O           1.5376   10.7646   -3.6746 O.co2   1  UNL1       -0.6615
      3 O          -0.4717   11.4856   -4.9911 O.co2   1  UNL1       -0.6615
      4 O           1.0210   13.1750   -3.9265 O.co2   1  UNL1       -0.6615
      5 P          -2.0191   12.2278   -2.0545 P.3     1  UNL1        0.2491
      6 O          -2.8761   11.8451   -3.2155 O.co2   1  UNL1       -0.6337
      7 O          -2.0793   13.6300   -1.5601 O.co2   1  UNL1       -0.6337
      8 O          -0.4423   11.7346   -2.5313 O.3     1  UNL1       -0.0930
      9 O          -2.4084   11.2241   -0.8332 O.3     1  UNL1       -0.2057
     10 C          -3.7577   11.0219   -0.4619 C.3     1  UNL1        0.1232
     11 C          -4.2999   12.3861   -0.1511 C.3     1  UNL1        0.1214
     12 O          -5.0838   12.7612   -1.2886 O.3     1  UNL1       -0.3453
     13 C          -5.2552   12.3997    1.0735 C.3     1  UNL1        0.1593
     14 O          -5.1299   13.6730    1.7700 O.3     1  UNL1       -0.2421
     15 P          -3.6517   14.1334    2.4908 P.3     1  UNL1       -0.0004
     16 O          -4.1220   14.5631    3.8312 O.co2   1  UNL1       -0.6646
     17 O          -2.8742   12.8682    2.4698 O.co2   1  UNL1       -0.6646
     18 O          -3.0673   15.1889    1.6087 O.co2   1  UNL1       -0.6646
     19 C          -6.6097   12.2741    0.3867 C.3     1  UNL1        0.1329
     20 O          -7.6709   12.7407    1.2492 O.3     1  UNL1       -0.3845
     21 C          -6.3082   13.2529   -0.7653 C.3     1  UNL1        0.1668
     22 N          -7.2346   13.2299   -1.9196 N.ar    1  UNL1       -0.2855
     23 C          -8.0190   14.3031   -2.2612 C.ar    1  UNL1        0.1004
     24 N          -8.7778   14.0982   -3.2968 N.ar    1  UNL1       -0.2306
     25 C          -8.4869   12.7574   -3.7054 C.ar    1  UNL1        0.1473
     26 C          -8.9876   11.9372   -4.8046 C.ar    1  UNL1        0.1472
     27 N          -9.9748   12.3491   -5.6236 N.pl3   1  UNL1       -0.3413
     28 N          -8.4679   10.6882   -4.9360 N.ar    1  UNL1       -0.2188
     29 C          -7.5532   10.2913   -4.0392 C.ar    1  UNL1        0.1205
     30 N          -7.0112   10.9335   -2.9761 N.ar    1  UNL1       -0.2159
     31 C          -7.5302   12.2070   -2.8594 C.ar    1  UNL1        0.1674
     32 H          -4.3142   10.5695   -1.2828 H       1  UNL1        0.0631
     33 H          -3.8117   10.3868    0.4222 H       1  UNL1        0.0631
     34 H          -3.4841   13.0937   -0.0031 H       1  UNL1        0.0650
     35 H          -5.0644   11.5584    1.7397 H       1  UNL1        0.0694
     36 H          -6.7921   11.2620    0.0256 H       1  UNL1        0.0667
     37 H          -6.1868   14.2682   -0.3877 H       1  UNL1        0.0866
     38 H          -8.0069   15.2361   -1.7173 H       1  UNL1        0.1030
     39 H          -7.1855    9.2871   -4.1901 H       1  UNL1        0.1048
     40 H          -9.7882   13.0492   -6.3272 H       1  UNL1        0.1438
     41 H         -10.9016   11.9579   -5.5339 H       1  UNL1        0.1438
     42 H          -8.3903   13.0847    0.7146 H       1  UNL1        0.2101
@<TRIPOS>BOND
     1     1     2    1
     2     1     3    1
     3     1     4    1
     4     1     8    1
     5     5     6    1
     6     5     7    1
     7     5     8    1
     8     5     9    1
     9     9    10    1
    10    10    11    1
    11    11    12    1
    12    11    13    1
    13    12    21    1
    14    13    14    1
    15    13    19    1
    16    14    15    1
    17    15    16    1
    18    15    17    1
    19    15    18    1
    20    19    20    1
    21    19    21    1
    22    21    22    1
    23    22    23   ar
    24    22    31   ar
    25    23    24   ar
    26    24    25   ar
    27    25    26   ar
    28    25    31   ar
    29    26    27    1
    30    26    28   ar
    31    28    29   ar
    32    29    30   ar
    33    30    31   ar
    34    32    10    1
    35    33    10    1
    36    11    34    1
    37    13    35    1
    38    19    36    1
    39    21    37    1
    40    38    23    1
    41    39    29    1
    42    40    27    1
    43    41    27    1
    44    42    20    1
@<TRIPOS>SUBSTRUCTURE
     1 UNL1        1 TEMP              0 ****  ****    0 ROOT

########## Name:	16	1147  0.918032
@<TRIPOS>MOLECULE
af2_protein.mol216	
 42 44 1 0 0
SMALL
GASTEIGER


@<TRIPOS>ATOM
      1 P          -1.3002    9.1039   -5.4083 P.3     1  UNL1        0.0544
      2 O          -0.5806    9.4688   -6.6452 O.co2   1  UNL1       -0.6615
      3 O          -0.5568    9.4053   -4.1381 O.co2   1  UNL1       -0.6615
      4 O          -1.8856    7.7433   -5.4370 O.co2   1  UNL1       -0.6615
      5 P          -3.7037   10.6959   -4.1642 P.3     1  UNL1        0.2491
      6 O          -2.8432   10.9837   -2.9785 O.co2   1  UNL1       -0.6337
      7 O          -4.8886    9.8140   -3.9834 O.co2   1  UNL1       -0.6337
      8 O          -2.5931   10.1210   -5.3444 O.3     1  UNL1       -0.0930
      9 O          -4.2036   12.1339   -4.7410 O.3     1  UNL1       -0.2057
     10 C          -4.7765   13.1007   -3.8829 C.3     1  UNL1        0.1232
     11 C          -5.9402   12.4185   -3.2255 C.3     1  UNL1        0.1214
     12 O          -5.5000   12.0858   -1.9047 O.3     1  UNL1       -0.3453
     13 C          -7.1785   13.3419   -3.0640 C.3     1  UNL1        0.1593
     14 O          -8.3930   12.5450   -3.1727 O.3     1  UNL1       -0.2421
     15 P          -8.7726   11.7229   -4.6207 P.3     1  UNL1       -0.0004
     16 O         -10.1901   12.1238   -4.8005 O.co2   1  UNL1       -0.6646
     17 O          -7.8194   12.3200   -5.5905 O.co2   1  UNL1       -0.6646
     18 O          -8.5068   10.2752   -4.3614 O.co2   1  UNL1       -0.6646
     19 C          -6.9760   13.8535   -1.6429 C.3     1  UNL1        0.1329
     20 O          -8.2184   14.3387   -1.0871 O.3     1  UNL1       -0.3845
     21 C          -6.5418   12.5046   -1.0364 C.3     1  UNL1        0.1668
     22 N          -5.9081   12.5478    0.3007 N.ar    1  UNL1       -0.2855
     23 C          -6.4751   11.9681    1.4080 C.ar    1  UNL1        0.1004
     24 N          -5.7821   12.1151    2.4982 N.ar    1  UNL1       -0.2306
     25 C          -4.6301   12.8668    2.1021 C.ar    1  UNL1        0.1473
     26 C          -3.4676   13.3438    2.8458 C.ar    1  UNL1        0.1472
     27 N          -3.3548   13.2026    4.1809 N.pl3   1  UNL1       -0.3413
     28 N          -2.5141   14.0143    2.1472 N.ar    1  UNL1       -0.2188
     29 C          -2.7169   14.2090    0.8358 C.ar    1  UNL1        0.1205
     30 N          -3.7396   13.8372    0.0282 N.ar    1  UNL1       -0.2159
     31 C          -4.6953   13.1416    0.7405 C.ar    1  UNL1        0.1674
     32 H          -4.0518   13.4220   -3.1347 H       1  UNL1        0.0631
     33 H          -5.1222   13.9572   -4.4616 H       1  UNL1        0.0631
     34 H          -6.2096   11.5158   -3.7738 H       1  UNL1        0.0650
     35 H          -7.1679   14.1565   -3.7881 H       1  UNL1        0.0694
     36 H          -6.1842   14.6004   -1.5868 H       1  UNL1        0.0667
     37 H          -7.3662   11.7917   -1.0502 H       1  UNL1        0.0866
     38 H          -7.4146   11.4363    1.3765 H       1  UNL1        0.1030
     39 H          -1.9300   14.7560    0.3380 H       1  UNL1        0.1048
     40 H          -3.1461   12.2975    4.5774 H       1  UNL1        0.1438
     41 H          -3.4792   14.0021    4.7854 H       1  UNL1        0.1438
     42 H          -8.2089   14.2250   -0.1339 H       1  UNL1        0.2101
@<TRIPOS>BOND
     1     1     2    1
     2     1     3    1
     3     1     4    1
     4     1     8    1
     5     5     6    1
     6     5     7    1
     7     5     8    1
     8     5     9    1
     9     9    10    1
    10    10    11    1
    11    11    12    1
    12    11    13    1
    13    12    21    1
    14    13    14    1
    15    13    19    1
    16    14    15    1
    17    15    16    1
    18    15    17    1
    19    15    18    1
    20    19    20    1
    21    19    21    1
    22    21    22    1
    23    22    23   ar
    24    22    31   ar
    25    23    24   ar
    26    24    25   ar
    27    25    26   ar
    28    25    31   ar
    29    26    27    1
    30    26    28   ar
    31    28    29   ar
    32    29    30   ar
    33    30    31   ar
    34    32    10    1
    35    33    10    1
    36    11    34    1
    37    13    35    1
    38    19    36    1
    39    21    37    1
    40    38    23    1
    41    39    29    1
    42    40    27    1
    43    41    27    1
    44    42    20    1
@<TRIPOS>SUBSTRUCTURE
     1 UNL1        1 TEMP              0 ****  ****    0 ROOT

########## Name:	17	1104.14  0.91631
@<TRIPOS>MOLECULE
af2_protein.mol217	
 42 44 1 0 0
SMALL
GASTEIGER


@<TRIPOS>ATOM
      1 P          -0.1469    9.5267   -4.2958 P.3     1  UNL1        0.0544
      2 O           0.6355    9.8140   -5.5149 O.co2   1  UNL1       -0.6615
      3 O           0.3229   10.2480   -3.0646 O.co2   1  UNL1       -0.6615
      4 O          -0.3953    8.0835   -4.0717 O.co2   1  UNL1       -0.6615
      5 P          -3.0006   10.6682   -3.6536 P.3     1  UNL1        0.2491
      6 O          -2.4031   11.3898   -2.4912 O.co2   1  UNL1       -0.6337
      7 O          -3.9653    9.5674   -3.3854 O.co2   1  UNL1       -0.6337
      8 O          -1.6343   10.1752   -4.5739 O.3     1  UNL1       -0.0930
      9 O          -3.7310   11.7918   -4.5780 O.3     1  UNL1       -0.2057
     10 C          -4.6241   12.7298   -4.0106 C.3     1  UNL1        0.1232
     11 C          -5.6806   11.9164   -3.3224 C.3     1  UNL1        0.1214
     12 O          -5.3648   11.9697   -1.9272 O.3     1  UNL1       -0.3453
     13 C          -7.1076   12.5089   -3.4800 C.3     1  UNL1        0.1593
     14 O          -8.0800   11.4248   -3.5144 O.3     1  UNL1       -0.2421
     15 P          -8.0552   10.2677   -4.7703 P.3     1  UNL1       -0.0004
     16 O          -9.4875   10.2534   -5.1585 O.co2   1  UNL1       -0.6646
     17 O          -7.1383   10.8864   -5.7614 O.co2   1  UNL1       -0.6646
     18 O          -7.5039    9.0138   -4.1725 O.co2   1  UNL1       -0.6646
     19 C          -7.2281   13.3216   -2.1966 C.3     1  UNL1        0.1329
     20 O          -8.6136   13.5747   -1.8741 O.3     1  UNL1       -0.3845
     21 C          -6.5855   12.2716   -1.2689 C.3     1  UNL1        0.1668
     22 N          -6.1716   12.7334    0.0752 N.ar    1  UNL1       -0.2855
     23 C          -6.7397   12.2560    1.2298 C.ar    1  UNL1        0.1004
     24 N          -6.2580   12.7831    2.3162 N.ar    1  UNL1       -0.2306
     25 C          -5.2650   13.7103    1.8651 C.ar    1  UNL1        0.1473
     26 C          -4.3581   14.6016    2.5828 C.ar    1  UNL1        0.1472
     27 N          -4.4035   14.7564    3.9203 N.pl3   1  UNL1       -0.3413
     28 N          -3.4955   15.3427    1.8386 N.ar    1  UNL1       -0.2188
     29 C          -3.5525   15.2205    0.5042 C.ar    1  UNL1        0.1205
     30 N          -4.3399   14.4518   -0.2867 N.ar    1  UNL1       -0.2159
     31 C          -5.2006   13.6891    0.4761 C.ar    1  UNL1        0.1674
     32 H          -4.1039   13.3635   -3.2923 H       1  UNL1        0.0631
     33 H          -5.0725   13.3410   -4.7937 H       1  UNL1        0.0631
     34 H          -5.6569   10.8860   -3.6771 H       1  UNL1        0.0650
     35 H          -7.1828   13.1425   -4.3637 H       1  UNL1        0.0694
     36 H          -6.6442   14.2410   -2.2391 H       1  UNL1        0.0667
     37 H          -7.2146   11.3844   -1.1957 H       1  UNL1        0.0866
     38 H          -7.5186   11.5078    1.2353 H       1  UNL1        0.1030
     39 H          -2.8501   15.8413   -0.0320 H       1  UNL1        0.1048
     40 H          -4.0505   14.0288    4.5253 H       1  UNL1        0.1438
     41 H          -4.7908   15.6001    4.3181 H       1  UNL1        0.1438
     42 H          -8.7116   13.6549   -0.9224 H       1  UNL1        0.2101
@<TRIPOS>BOND
     1     1     2    1
     2     1     3    1
     3     1     4    1
     4     1     8    1
     5     5     6    1
     6     5     7    1
     7     5     8    1
     8     5     9    1
     9     9    10    1
    10    10    11    1
    11    11    12    1
    12    11    13    1
    13    12    21    1
    14    13    14    1
    15    13    19    1
    16    14    15    1
    17    15    16    1
    18    15    17    1
    19    15    18    1
    20    19    20    1
    21    19    21    1
    22    21    22    1
    23    22    23   ar
    24    22    31   ar
    25    23    24   ar
    26    24    25   ar
    27    25    26   ar
    28    25    31   ar
    29    26    27    1
    30    26    28   ar
    31    28    29   ar
    32    29    30   ar
    33    30    31   ar
    34    32    10    1
    35    33    10    1
    36    11    34    1
    37    13    35    1
    38    19    36    1
    39    21    37    1
    40    38    23    1
    41    39    29    1
    42    40    27    1
    43    41    27    1
    44    42    20    1
@<TRIPOS>SUBSTRUCTURE
     1 UNL1        1 TEMP              0 ****  ****    0 ROOT

########## Name:	18	1068.13  0.915075
@<TRIPOS>MOLECULE
af2_protein.mol218	
 42 44 1 0 0
SMALL
GASTEIGER


@<TRIPOS>ATOM
      1 P          -1.3941    8.2048   -4.1227 P.3     1  UNL1        0.0544
      2 O          -0.5119    8.2589   -5.3057 O.co2   1  UNL1       -0.6615
      3 O          -0.7821    8.7392   -2.8590 O.co2   1  UNL1       -0.6615
      4 O          -2.0703    6.8992   -3.9409 O.co2   1  UNL1       -0.6615
      5 P          -3.8021   10.1392   -3.5582 P.3     1  UNL1        0.2491
      6 O          -3.0653   10.6366   -2.3586 O.co2   1  UNL1       -0.6337
      7 O          -5.0612    9.3739   -3.3504 O.co2   1  UNL1       -0.6337
      8 O          -2.6078    9.2709   -4.4394 O.3     1  UNL1       -0.0930
      9 O          -4.1256   11.4398   -4.4824 O.3     1  UNL1       -0.2057
     10 C          -4.7213   12.5954   -3.9263 C.3     1  UNL1        0.1232
     11 C          -5.9998   12.1271   -3.2956 C.3     1  UNL1        0.1214
     12 O          -5.7404   12.0682   -1.8891 O.3     1  UNL1       -0.3453
     13 C          -7.1776   13.1204   -3.4912 C.3     1  UNL1        0.1593
     14 O          -8.4266   12.3766   -3.5856 O.3     1  UNL1       -0.2421
     15 P          -8.6957   11.2789   -4.8659 P.3     1  UNL1       -0.0004
     16 O         -10.0499   11.6972   -5.3060 O.co2   1  UNL1       -0.6646
     17 O          -7.5959   11.6064   -5.8087 O.co2   1  UNL1       -0.6646
     18 O          -8.5683    9.9110   -4.2775 O.co2   1  UNL1       -0.6646
     19 C          -7.1035   13.9178   -2.1946 C.3     1  UNL1        0.1329
     20 O          -8.3628   14.5694   -1.9168 O.3     1  UNL1       -0.3845
     21 C          -6.8419   12.7135   -1.2686 C.3     1  UNL1        0.1668
     22 N          -6.3652   13.0157    0.0998 N.ar    1  UNL1       -0.2855
     23 C          -7.0970   12.7170    1.2218 C.ar    1  UNL1        0.1004
     24 N          -6.5255   13.0641    2.3368 N.ar    1  UNL1       -0.2306
     25 C          -5.2835   13.6574    1.9433 C.ar    1  UNL1        0.1473
     26 C          -4.1828   14.2293    2.7136 C.ar    1  UNL1        0.1472
     27 N          -4.2354   14.3757    4.0518 N.pl3   1  UNL1       -0.3413
     28 N          -3.1086   14.6872    2.0183 N.ar    1  UNL1       -0.2188
     29 C          -3.1441   14.6022    0.6803 C.ar    1  UNL1        0.1205
     30 N          -4.0913   14.1126   -0.1560 N.ar    1  UNL1       -0.2159
     31 C          -5.1710   13.6333    0.5574 C.ar    1  UNL1        0.1674
     32 H          -4.0662   13.0369   -3.1753 H       1  UNL1        0.0631
     33 H          -4.9345   13.3213   -4.7109 H       1  UNL1        0.0631
     34 H          -6.2695   11.1406   -3.6728 H       1  UNL1        0.0650
     35 H          -7.0240   13.7573   -4.3622 H       1  UNL1        0.0694
     36 H          -6.2709   14.6212   -2.1949 H       1  UNL1        0.0667
     37 H          -7.7092   12.0539   -1.2386 H       1  UNL1        0.0866
     38 H          -8.0630   12.2355    1.1820 H       1  UNL1        0.1030
     39 H          -2.2671   14.9910    0.1842 H       1  UNL1        0.1048
     40 H          -4.1405   13.5692    4.6523 H       1  UNL1        0.1438
     41 H          -4.3698   15.2921    4.4546 H       1  UNL1        0.1438
     42 H          -8.4716   14.6647   -0.9677 H       1  UNL1        0.2101
@<TRIPOS>BOND
     1     1     2    1
     2     1     3    1
     3     1     4    1
     4     1     8    1
     5     5     6    1
     6     5     7    1
     7     5     8    1
     8     5     9    1
     9     9    10    1
    10    10    11    1
    11    11    12    1
    12    11    13    1
    13    12    21    1
    14    13    14    1
    15    13    19    1
    16    14    15    1
    17    15    16    1
    18    15    17    1
    19    15    18    1
    20    19    20    1
    21    19    21    1
    22    21    22    1
    23    22    23   ar
    24    22    31   ar
    25    23    24   ar
    26    24    25   ar
    27    25    26   ar
    28    25    31   ar
    29    26    27    1
    30    26    28   ar
    31    28    29   ar
    32    29    30   ar
    33    30    31   ar
    34    32    10    1
    35    33    10    1
    36    11    34    1
    37    13    35    1
    38    19    36    1
    39    21    37    1
    40    38    23    1
    41    39    29    1
    42    40    27    1
    43    41    27    1
    44    42    20    1
@<TRIPOS>SUBSTRUCTURE
     1 UNL1        1 TEMP              0 ****  ****    0 ROOT

########## Name:	19	1121.05  0.901371
@<TRIPOS>MOLECULE
af2_protein.mol219	
 42 44 1 0 0
SMALL
GASTEIGER


@<TRIPOS>ATOM
      1 P          -0.6805    9.4060   -5.1944 P.3     1  UNL1        0.0544
      2 O           0.0432    9.7783   -6.4268 O.co2   1  UNL1       -0.6615
      3 O          -0.0789    9.9436   -3.9272 O.co2   1  UNL1       -0.6615
      4 O          -1.0260    7.9675   -5.1160 O.co2   1  UNL1       -0.6615
      5 P          -3.3901   10.6621   -4.2253 P.3     1  UNL1        0.2491
      6 O          -2.6657   11.1991   -3.0353 O.co2   1  UNL1       -0.6337
      7 O          -4.4188    9.6079   -4.0134 O.co2   1  UNL1       -0.6337
      8 O          -2.1274   10.1854   -5.2906 O.3     1  UNL1       -0.0930
      9 O          -4.0877   11.9345   -4.9633 O.3     1  UNL1       -0.2057
     10 C          -4.8672   12.8601   -4.2318 C.3     1  UNL1        0.1232
     11 C          -5.9383   12.0480   -3.5648 C.3     1  UNL1        0.1214
     12 O          -5.5316   11.9155   -2.1988 O.3     1  UNL1       -0.3453
     13 C          -7.3218   12.7536   -3.5523 C.3     1  UNL1        0.1593
     14 O          -8.3760   11.7520   -3.6379 O.3     1  UNL1       -0.2421
     15 P          -8.5211   10.7508   -5.0138 P.3     1  UNL1       -0.0004
     16 O          -9.9718   10.8825   -5.2974 O.co2   1  UNL1       -0.6646
     17 O          -7.6233   11.4151   -5.9927 O.co2   1  UNL1       -0.6646
     18 O          -8.0325    9.3999   -4.6013 O.co2   1  UNL1       -0.6646
     19 C          -7.2971   13.4171   -2.1806 C.3     1  UNL1        0.1329
     20 O          -8.6355   13.7274   -1.7332 O.3     1  UNL1       -0.3845
     21 C          -6.6810   12.2233   -1.4249 C.3     1  UNL1        0.1668
     22 N          -6.1480   12.4946   -0.0708 N.ar    1  UNL1       -0.2855
     23 C          -6.6774   11.9264    1.0609 C.ar    1  UNL1        0.1004
     24 N          -6.0883   12.2878    2.1621 N.ar    1  UNL1       -0.2306
     25 C          -5.0565   13.1894    1.7475 C.ar    1  UNL1        0.1473
     26 C          -4.0394   13.9248    2.4934 C.ar    1  UNL1        0.1472
     27 N          -3.9878   13.9249    3.8396 N.pl3   1  UNL1       -0.3413
     28 N          -3.1705   14.6854    1.7768 N.ar    1  UNL1       -0.2188
     29 C          -3.3211   14.7243    0.4447 C.ar    1  UNL1        0.1205
     30 N          -4.2145   14.1106   -0.3687 N.ar    1  UNL1       -0.2159
     31 C          -5.0821   13.3262    0.3638 C.ar    1  UNL1        0.1674
     32 H          -4.2548   13.3674   -3.4863 H       1  UNL1        0.0631
     33 H          -5.3153   13.5887   -4.9074 H       1  UNL1        0.0631
     34 H          -6.0175   11.0670   -4.0335 H       1  UNL1        0.0650
     35 H          -7.4032   13.4899   -4.3518 H       1  UNL1        0.0694
     36 H          -6.6471   14.2918   -2.1619 H       1  UNL1        0.0667
     37 H          -7.3714   11.3800   -1.4064 H       1  UNL1        0.0866
     38 H          -7.5104   11.2393    1.0386 H       1  UNL1        0.1030
     39 H          -2.6078   15.3528   -0.0677 H       1  UNL1        0.1048
     40 H          -3.6551   13.1086    4.3325 H       1  UNL1        0.1438
     41 H          -4.2822   14.7414    4.3562 H       1  UNL1        0.1438
     42 H          -8.6664   13.7024   -0.7740 H       1  UNL1        0.2101
@<TRIPOS>BOND
     1     1     2    1
     2     1     3    1
     3     1     4    1
     4     1     8    1
     5     5     6    1
     6     5     7    1
     7     5     8    1
     8     5     9    1
     9     9    10    1
    10    10    11    1
    11    11    12    1
    12    11    13    1
    13    12    21    1
    14    13    14    1
    15    13    19    1
    16    14    15    1
    17    15    16    1
    18    15    17    1
    19    15    18    1
    20    19    20    1
    21    19    21    1
    22    21    22    1
    23    22    23   ar
    24    22    31   ar
    25    23    24   ar
    26    24    25   ar
    27    25    26   ar
    28    25    31   ar
    29    26    27    1
    30    26    28   ar
    31    28    29   ar
    32    29    30   ar
    33    30    31   ar
    34    32    10    1
    35    33    10    1
    36    11    34    1
    37    13    35    1
    38    19    36    1
    39    21    37    1
    40    38    23    1
    41    39    29    1
    42    40    27    1
    43    41    27    1
    44    42    20    1
@<TRIPOS>SUBSTRUCTURE
     1 UNL1        1 TEMP              0 ****  ****    0 ROOT

########## Name:	0	1740.25  0.927808
@<TRIPOS>MOLECULE
af2_protein.mol20	
 42 44 1 0 0
SMALL
GASTEIGER


@<TRIPOS>ATOM
      1 P          -9.9128   10.6407   -5.3834 P.3     1  UNL1        0.0544
      2 O         -10.9777    9.6247   -5.2621 O.co2   1  UNL1       -0.6615
      3 O         -10.2462   11.9741   -4.7769 O.co2   1  UNL1       -0.6615
      4 O          -9.3366   10.7425   -6.7444 O.co2   1  UNL1       -0.6615
      5 P          -7.2784   10.7284   -3.6773 P.3     1  UNL1        0.2491
      6 O          -7.7486   12.0211   -3.0968 O.co2   1  UNL1       -0.6337
      7 O          -6.0769   10.7404   -4.5551 O.co2   1  UNL1       -0.6337
      8 O          -8.6807   10.0901   -4.4408 O.3     1  UNL1       -0.0930
      9 O          -7.0030    9.7248   -2.4254 O.3     1  UNL1       -0.2057
     10 C          -6.2180   10.1367   -1.3238 C.3     1  UNL1        0.1232
     11 C          -4.8975   10.5532   -1.9022 C.3     1  UNL1        0.1214
     12 O          -4.9140   11.9844   -1.9177 O.3     1  UNL1       -0.3453
     13 C          -3.6862   10.1301   -1.0270 C.3     1  UNL1        0.1593
     14 O          -2.5449    9.8456   -1.8864 O.3     1  UNL1       -0.2421
     15 P          -2.6017    8.5708   -3.0215 P.3     1  UNL1       -0.0004
     16 O          -1.3117    7.8938   -2.7386 O.co2   1  UNL1       -0.6646
     17 O          -3.8137    7.8206   -2.6043 O.co2   1  UNL1       -0.6646
     18 O          -2.7489    9.2123   -4.3634 O.co2   1  UNL1       -0.6646
     19 C          -3.4625   11.3963   -0.2091 C.3     1  UNL1        0.1329
     20 O          -2.1203   11.4357    0.3246 O.3     1  UNL1       -0.3845
     21 C          -3.6680   12.3883   -1.3709 C.3     1  UNL1        0.1668
     22 N          -3.8717   13.8086   -1.0069 N.ar    1  UNL1       -0.2855
     23 C          -2.9870   14.7974   -1.3584 C.ar    1  UNL1        0.1004
     24 N          -3.3234   15.9829   -0.9441 N.ar    1  UNL1       -0.2306
     25 C          -4.5557   15.7902   -0.2416 C.ar    1  UNL1        0.1473
     26 C          -5.4503   16.7201    0.4416 C.ar    1  UNL1        0.1472
     27 N          -5.1541   18.0248    0.6002 N.pl3   1  UNL1       -0.3413
     28 N          -6.5826   16.2055    0.9894 N.ar    1  UNL1       -0.2188
     29 C          -6.7867   14.8842    0.8838 C.ar    1  UNL1        0.1205
     30 N          -6.0467   13.9130    0.2960 N.ar    1  UNL1       -0.2159
     31 C          -4.9078   14.4453   -0.2735 C.ar    1  UNL1        0.1674
     32 H          -6.6907   10.9754   -0.8126 H       1  UNL1        0.0631
     33 H          -6.0788    9.3063   -0.6318 H       1  UNL1        0.0631
     34 H          -4.7875   10.1645   -2.9146 H       1  UNL1        0.0650
     35 H          -3.9297    9.2798   -0.3901 H       1  UNL1        0.0694
     36 H          -4.2154   11.5177    0.5696 H       1  UNL1        0.0667
     37 H          -2.8720   12.2890   -2.1088 H       1  UNL1        0.0866
     38 H          -2.0901   14.6072   -1.9293 H       1  UNL1        0.1030
     39 H          -7.6974   14.5341    1.3468 H       1  UNL1        0.1048
     40 H          -5.2164   18.6561   -0.1857 H       1  UNL1        0.1438
     41 H          -4.8697   18.3716    1.5051 H       1  UNL1        0.1438
     42 H          -1.8409   12.3490    0.4218 H       1  UNL1        0.2101
@<TRIPOS>BOND
     1     1     2    1
     2     1     3    1
     3     1     4    1
     4     1     8    1
     5     5     6    1
     6     5     7    1
     7     5     8    1
     8     5     9    1
     9     9    10    1
    10    10    11    1
    11    11    12    1
    12    11    13    1
    13    12    21    1
    14    13    14    1
    15    13    19    1
    16    14    15    1
    17    15    16    1
    18    15    17    1
    19    15    18    1
    20    19    20    1
    21    19    21    1
    22    21    22    1
    23    22    23   ar
    24    22    31   ar
    25    23    24   ar
    26    24    25   ar
    27    25    26   ar
    28    25    31   ar
    29    26    27    1
    30    26    28   ar
    31    28    29   ar
    32    29    30   ar
    33    30    31   ar
    34    32    10    1
    35    33    10    1
    36    11    34    1
    37    13    35    1
    38    19    36    1
    39    21    37    1
    40    38    23    1
    41    39    29    1
    42    40    27    1
    43    41    27    1
    44    42    20    1
@<TRIPOS>SUBSTRUCTURE
     1 UNL1        1 TEMP              0 ****  ****    0 ROOT

########## Name:	1	2213.91  0.914528
@<TRIPOS>MOLECULE
af2_protein.mol21	
 42 44 1 0 0
SMALL
GASTEIGER


@<TRIPOS>ATOM
      1 P          -4.8191    9.6883    3.9282 P.3     1  UNL1        0.0544
      2 O          -5.8340    9.3726    4.9536 O.co2   1  UNL1       -0.6615
      3 O          -4.6089    8.6118    2.9016 O.co2   1  UNL1       -0.6615
      4 O          -3.5547   10.2240    4.4843 O.co2   1  UNL1       -0.6615
      5 P          -5.2209   11.6570    1.5155 P.3     1  UNL1        0.2491
      6 O          -5.0579   10.4932    0.5946 O.co2   1  UNL1       -0.6337
      7 O          -4.1748   12.7153    1.5132 O.co2   1  UNL1       -0.6337
      8 O          -5.4582   10.9289    3.0551 O.3     1  UNL1       -0.0930
      9 O          -6.6565   12.3381    1.1609 O.3     1  UNL1       -0.2057
     10 C          -6.9991   12.6562   -0.1735 C.3     1  UNL1        0.1232
     11 C          -5.9067   13.5589   -0.6669 C.3     1  UNL1        0.1214
     12 O          -5.0722   12.7424   -1.4951 O.3     1  UNL1       -0.3453
     13 C          -6.4278   14.7166   -1.5616 C.3     1  UNL1        0.1593
     14 O          -5.5861   15.8903   -1.3721 O.3     1  UNL1       -0.2421
     15 P          -5.4878   16.6590    0.1498 P.3     1  UNL1       -0.0004
     16 O          -5.6855   18.0759   -0.2451 O.co2   1  UNL1       -0.6646
     17 O          -6.6178   16.0472    0.8943 O.co2   1  UNL1       -0.6646
     18 O          -4.1537   16.2948    0.7167 O.co2   1  UNL1       -0.6646
     19 C          -6.2399   14.1177   -2.9502 C.3     1  UNL1        0.1329
     20 O          -6.1953   15.1530   -3.9571 O.3     1  UNL1       -0.3845
     21 C          -4.8569   13.4927   -2.6806 C.3     1  UNL1        0.1668
     22 N          -4.3731   12.4953   -3.6616 N.ar    1  UNL1       -0.2855
     23 C          -3.2577   12.6981   -4.4352 C.ar    1  UNL1        0.1004
     24 N          -2.9894   11.7192   -5.2475 N.ar    1  UNL1       -0.2306
     25 C          -4.0179   10.7524   -5.0093 C.ar    1  UNL1        0.1473
     26 C          -4.2759    9.4343   -5.5820 C.ar    1  UNL1        0.1472
     27 N          -3.5470    8.9310   -6.5970 N.pl3   1  UNL1       -0.3413
     28 N          -5.3428    8.7442   -5.0997 N.ar    1  UNL1       -0.2188
     29 C          -6.0922    9.3279   -4.1530 C.ar    1  UNL1        0.1205
     30 N          -5.9786   10.5337   -3.5451 N.ar    1  UNL1       -0.2159
     31 C          -4.8832   11.2212   -4.0268 C.ar    1  UNL1        0.1674
     32 H          -7.0475   11.7514   -0.7796 H       1  UNL1        0.0631
     33 H          -7.9563   13.1768   -0.2005 H       1  UNL1        0.0631
     34 H          -5.3354   13.9562    0.1721 H       1  UNL1        0.0650
     35 H          -7.4757   14.9384   -1.3596 H       1  UNL1        0.0694
     36 H          -6.9929   13.3621   -3.1743 H       1  UNL1        0.0667
     37 H          -4.1082   14.2677   -2.5166 H       1  UNL1        0.0866
     38 H          -2.6555   13.5927   -4.3743 H       1  UNL1        0.1030
     39 H          -6.9303    8.7351   -3.8175 H       1  UNL1        0.1048
     40 H          -2.6102    8.5937   -6.4275 H       1  UNL1        0.1438
     41 H          -3.9373    8.8910   -7.5277 H       1  UNL1        0.1438
     42 H          -5.6519   14.8612   -4.6927 H       1  UNL1        0.2101
@<TRIPOS>BOND
     1     1     2    1
     2     1     3    1
     3     1     4    1
     4     1     8    1
     5     5     6    1
     6     5     7    1
     7     5     8    1
     8     5     9    1
     9     9    10    1
    10    10    11    1
    11    11    12    1
    12    11    13    1
    13    12    21    1
    14    13    14    1
    15    13    19    1
    16    14    15    1
    17    15    16    1
    18    15    17    1
    19    15    18    1
    20    19    20    1
    21    19    21    1
    22    21    22    1
    23    22    23   ar
    24    22    31   ar
    25    23    24   ar
    26    24    25   ar
    27    25    26   ar
    28    25    31   ar
    29    26    27    1
    30    26    28   ar
    31    28    29   ar
    32    29    30   ar
    33    30    31   ar
    34    32    10    1
    35    33    10    1
    36    11    34    1
    37    13    35    1
    38    19    36    1
    39    21    37    1
    40    38    23    1
    41    39    29    1
    42    40    27    1
    43    41    27    1
    44    42    20    1
@<TRIPOS>SUBSTRUCTURE
     1 UNL1        1 TEMP              0 ****  ****    0 ROOT

########## Name:	2	2252.38  0.927478
@<TRIPOS>MOLECULE
af2_protein.mol22	
 42 44 1 0 0
SMALL
GASTEIGER


@<TRIPOS>ATOM
      1 P          -8.6692   17.0801    0.5477 P.3     1  UNL1        0.0544
      2 O          -9.2607   18.2742   -0.0888 O.co2   1  UNL1       -0.6615
      3 O          -9.5233   15.8460    0.4812 O.co2   1  UNL1       -0.6615
      4 O          -8.1119   17.3362    1.8962 O.co2   1  UNL1       -0.6615
      5 P          -6.3623   15.3271   -0.6623 P.3     1  UNL1        0.2491
      6 O          -7.3252   14.1886   -0.7372 O.co2   1  UNL1       -0.6337
      7 O          -5.2183   15.2275    0.2842 O.co2   1  UNL1       -0.6337
      8 O          -7.3676   16.6940   -0.3833 O.3     1  UNL1       -0.0930
      9 O          -5.7805   15.5490   -2.1665 O.3     1  UNL1       -0.2057
     10 C          -5.2718   14.4630   -2.9156 C.3     1  UNL1        0.1232
     11 C          -4.1900   13.8596   -2.0686 C.3     1  UNL1        0.1214
     12 O          -4.7601   12.6799   -1.4924 O.3     1  UNL1       -0.3453
     13 C          -2.9538   13.4026   -2.8903 C.3     1  UNL1        0.1593
     14 O          -1.7510   13.5649   -2.0847 O.3     1  UNL1       -0.2421
     15 P          -1.2529   15.1116   -1.5593 P.3     1  UNL1       -0.0004
     16 O           0.1832   15.0788   -1.9319 O.co2   1  UNL1       -0.6646
     17 O          -2.0974   16.0183   -2.3780 O.co2   1  UNL1       -0.6646
     18 O          -1.5718   15.1804   -0.1007 O.co2   1  UNL1       -0.6646
     19 C          -3.2795   11.9302   -3.1104 C.3     1  UNL1        0.1329
     20 O          -2.0857   11.1787   -3.4231 O.3     1  UNL1       -0.3845
     21 C          -3.7970   11.6552   -1.6847 C.3     1  UNL1        0.1668
     22 N          -4.5535   10.3993   -1.4806 N.ar    1  UNL1       -0.2855
     23 C          -4.1061    9.3892   -0.6662 C.ar    1  UNL1        0.1004
     24 N          -4.8961    8.3579   -0.6161 N.ar    1  UNL1       -0.2306
     25 C          -5.9897    8.6912   -1.4776 C.ar    1  UNL1        0.1473
     26 C          -7.2074    7.9713   -1.8392 C.ar    1  UNL1        0.1472
     27 N          -7.4491    6.7092   -1.4346 N.pl3   1  UNL1       -0.3413
     28 N          -8.0764    8.5987   -2.6749 N.ar    1  UNL1       -0.2188
     29 C          -7.7462    9.8187   -3.1234 C.ar    1  UNL1        0.1205
     30 N          -6.6594   10.5916   -2.8833 N.ar    1  UNL1       -0.2159
     31 C          -5.7901    9.9560   -2.0202 C.ar    1  UNL1        0.1674
     32 H          -6.0574   13.7319   -3.1067 H       1  UNL1        0.0631
     33 H          -4.8552   14.8201   -3.8573 H       1  UNL1        0.0631
     34 H          -3.8884   14.5560   -1.2861 H       1  UNL1        0.0650
     35 H          -2.8790   13.9416   -3.8347 H       1  UNL1        0.0694
     36 H          -4.0576   11.7920   -3.8610 H       1  UNL1        0.0667
     37 H          -2.9898   11.7423   -0.9574 H       1  UNL1        0.0866
     38 H          -3.1790    9.4462   -0.1151 H       1  UNL1        0.1030
     39 H          -8.4710   10.2610   -3.7908 H       1  UNL1        0.1048
     40 H          -7.7131    6.5275   -0.4768 H       1  UNL1        0.1438
     41 H          -7.3662    5.9445   -2.0892 H       1  UNL1        0.1438
     42 H          -2.1879   10.2739   -3.1188 H       1  UNL1        0.2101
@<TRIPOS>BOND
     1     1     2    1
     2     1     3    1
     3     1     4    1
     4     1     8    1
     5     5     6    1
     6     5     7    1
     7     5     8    1
     8     5     9    1
     9     9    10    1
    10    10    11    1
    11    11    12    1
    12    11    13    1
    13    12    21    1
    14    13    14    1
    15    13    19    1
    16    14    15    1
    17    15    16    1
    18    15    17    1
    19    15    18    1
    20    19    20    1
    21    19    21    1
    22    21    22    1
    23    22    23   ar
    24    22    31   ar
    25    23    24   ar
    26    24    25   ar
    27    25    26   ar
    28    25    31   ar
    29    26    27    1
    30    26    28   ar
    31    28    29   ar
    32    29    30   ar
    33    30    31   ar
    34    32    10    1
    35    33    10    1
    36    11    34    1
    37    13    35    1
    38    19    36    1
    39    21    37    1
    40    38    23    1
    41    39    29    1
    42    40    27    1
    43    41    27    1
    44    42    20    1
@<TRIPOS>SUBSTRUCTURE
     1 UNL1        1 TEMP              0 ****  ****    0 ROOT

########## Name:	3	2793.84  0.924005
@<TRIPOS>MOLECULE
af2_protein.mol23	
 42 44 1 0 0
SMALL
GASTEIGER


@<TRIPOS>ATOM
      1 P          -3.8024    6.8322    0.6820 P.3     1  UNL1        0.0544
      2 O          -4.1832    6.1735    1.9477 O.co2   1  UNL1       -0.6615
      3 O          -4.7410    6.5798   -0.4635 O.co2   1  UNL1       -0.6615
      4 O          -2.3762    6.6553    0.3221 O.co2   1  UNL1       -0.6615
      5 P          -4.1407    9.8886    0.0473 P.3     1  UNL1        0.2491
      6 O          -5.1095    9.5144   -1.0254 O.co2   1  UNL1       -0.6337
      7 O          -2.8417   10.4958   -0.3504 O.co2   1  UNL1       -0.6337
      8 O          -3.9716    8.4449    0.9659 O.3     1  UNL1       -0.0930
      9 O          -4.9171   10.9167    1.0426 O.3     1  UNL1       -0.2057
     10 C          -5.6119   12.0369    0.5309 C.3     1  UNL1        0.1232
     11 C          -4.6008   12.8114   -0.2625 C.3     1  UNL1        0.1214
     12 O          -4.8740   12.5141   -1.6359 O.3     1  UNL1       -0.3453
     13 C          -4.7452   14.3494   -0.1014 C.3     1  UNL1        0.1593
     14 O          -3.4312   14.9709   -0.1967 O.3     1  UNL1       -0.2421
     15 P          -2.2151   14.6247    0.9514 P.3     1  UNL1       -0.0004
     16 O          -1.7572   15.9957    1.2879 O.co2   1  UNL1       -0.6646
     17 O          -2.9719   13.9304    2.0242 O.co2   1  UNL1       -0.6646
     18 O          -1.2324   13.7332    0.2635 O.co2   1  UNL1       -0.6646
     19 C          -5.6082   14.6884   -1.3108 C.3     1  UNL1        0.1329
     20 O          -5.4862   16.0860   -1.6564 O.3     1  UNL1       -0.3845
     21 C          -4.8773   13.7654   -2.3058 C.3     1  UNL1        0.1668
     22 N          -5.5632   13.4915   -3.5886 N.ar    1  UNL1       -0.2855
     23 C          -5.0559   13.8908   -4.7998 C.ar    1  UNL1        0.1004
     24 N          -5.7989   13.5725   -5.8180 N.ar    1  UNL1       -0.2306
     25 C          -6.9230   12.8898   -5.2527 C.ar    1  UNL1        0.1473
     26 C          -8.0994   12.2711   -5.8570 C.ar    1  UNL1        0.1472
     27 N          -8.3612   12.3494   -7.1762 N.pl3   1  UNL1       -0.3413
     28 N          -8.9811   11.6621   -5.0209 N.ar    1  UNL1       -0.2188
     29 C          -8.7215   11.6912   -3.7055 C.ar    1  UNL1        0.1205
     30 N          -7.6892   12.2311   -3.0133 N.ar    1  UNL1       -0.2159
     31 C          -6.7892   12.8320   -3.8697 C.ar    1  UNL1        0.1674
     32 H          -6.4326   11.7149   -0.1102 H       1  UNL1        0.0631
     33 H          -5.9931   12.6471    1.3496 H       1  UNL1        0.0631
     34 H          -3.5908   12.4962   -0.0002 H       1  UNL1        0.0650
     35 H          -5.2444   14.6092    0.8321 H       1  UNL1        0.0694
     36 H          -6.6472   14.3924   -1.1668 H       1  UNL1        0.0667
     37 H          -3.8590   14.1136   -2.4790 H       1  UNL1        0.0866
     38 H          -4.1211   14.4228   -4.8983 H       1  UNL1        0.1030
     39 H          -9.4626   11.1999   -3.0925 H       1  UNL1        0.1048
     40 H          -7.8249   11.7985   -7.8312 H       1  UNL1        0.1438
     41 H          -9.0937   12.9592   -7.5103 H       1  UNL1        0.1438
     42 H          -5.6252   16.1960   -2.5999 H       1  UNL1        0.2101
@<TRIPOS>BOND
     1     1     2    1
     2     1     3    1
     3     1     4    1
     4     1     8    1
     5     5     6    1
     6     5     7    1
     7     5     8    1
     8     5     9    1
     9     9    10    1
    10    10    11    1
    11    11    12    1
    12    11    13    1
    13    12    21    1
    14    13    14    1
    15    13    19    1
    16    14    15    1
    17    15    16    1
    18    15    17    1
    19    15    18    1
    20    19    20    1
    21    19    21    1
    22    21    22    1
    23    22    23   ar
    24    22    31   ar
    25    23    24   ar
    26    24    25   ar
    27    25    26   ar
    28    25    31   ar
    29    26    27    1
    30    26    28   ar
    31    28    29   ar
    32    29    30   ar
    33    30    31   ar
    34    32    10    1
    35    33    10    1
    36    11    34    1
    37    13    35    1
    38    19    36    1
    39    21    37    1
    40    38    23    1
    41    39    29    1
    42    40    27    1
    43    41    27    1
    44    42    20    1
@<TRIPOS>SUBSTRUCTURE
     1 UNL1        1 TEMP              0 ****  ****    0 ROOT

########## Name:	4	1665.64  0.933144
@<TRIPOS>MOLECULE
af2_protein.mol24	
 42 44 1 0 0
SMALL
GASTEIGER


@<TRIPOS>ATOM
      1 P          -9.5920   16.0221   -4.1741 P.3     1  UNL1        0.0544
      2 O         -10.3942   15.9410   -5.4114 O.co2   1  UNL1       -0.6615
      3 O         -10.1861   15.3078   -2.9936 O.co2   1  UNL1       -0.6615
      4 O          -9.1209   17.3902   -3.8562 O.co2   1  UNL1       -0.6615
      5 P          -6.9639   14.4028   -3.5998 P.3     1  UNL1        0.2491
      6 O          -7.6833   13.7128   -2.4883 O.co2   1  UNL1       -0.6337
      7 O          -5.8404   15.3168   -3.2582 O.co2   1  UNL1       -0.6337
      8 O          -8.2228   15.1644   -4.4898 O.3     1  UNL1       -0.0930
      9 O          -6.4090   13.2385   -4.5933 O.3     1  UNL1       -0.2057
     10 C          -5.6833   12.1362   -4.0856 C.3     1  UNL1        0.1232
     11 C          -4.5201   12.7257   -3.3432 C.3     1  UNL1        0.1214
     12 O          -4.8585   12.6345   -1.9553 O.3     1  UNL1       -0.3453
     13 C          -3.2032   11.9250   -3.5352 C.3     1  UNL1        0.1593
     14 O          -2.0709   12.8407   -3.4966 O.3     1  UNL1       -0.2421
     15 P          -1.8957   14.0646   -4.6747 P.3     1  UNL1       -0.0004
     16 O          -0.4743   13.8757   -5.0574 O.co2   1  UNL1       -0.6646
     17 O          -2.8862   13.6640   -5.7063 O.co2   1  UNL1       -0.6646
     18 O          -2.2490   15.3496   -3.9982 O.co2   1  UNL1       -0.6646
     19 C          -3.2297   11.0235   -2.3069 C.3     1  UNL1        0.1329
     20 O          -1.9061   10.5333   -1.9979 O.3     1  UNL1       -0.3845
     21 C          -3.7097   12.1011   -1.3148 C.3     1  UNL1        0.1668
     22 N          -4.2089   11.6264   -0.0046 N.ar    1  UNL1       -0.2855
     23 C          -3.5873   11.9329    1.1801 C.ar    1  UNL1        0.1004
     24 N          -4.1605   11.4209    2.2287 N.ar    1  UNL1       -0.2306
     25 C          -5.2820   10.6941    1.7157 C.ar    1  UNL1        0.1473
     26 C          -6.3279    9.9144    2.3716 C.ar    1  UNL1        0.1472
     27 N          -6.3249    9.6695    3.6964 N.pl3   1  UNL1       -0.3413
     28 N          -7.2873    9.3688    1.5786 N.ar    1  UNL1       -0.2188
     29 C          -7.1945    9.5652    0.2551 C.ar    1  UNL1        0.1205
     30 N          -6.2851   10.2477   -0.4821 N.ar    1  UNL1       -0.2159
     31 C          -5.3242   10.8137    0.3309 C.ar    1  UNL1        0.1674
     32 H          -6.3065   11.5488   -3.4113 H       1  UNL1        0.0631
     33 H          -5.3273   11.5125   -4.9056 H       1  UNL1        0.0631
     34 H          -4.3756   13.7673   -3.6304 H       1  UNL1        0.0650
     35 H          -3.2179   11.3451   -4.4580 H       1  UNL1        0.0694
     36 H          -3.9514   10.2133   -2.4106 H       1  UNL1        0.0667
     37 H          -2.9489   12.8705   -1.1824 H       1  UNL1        0.0866
     38 H          -2.6998   12.5458    1.2362 H       1  UNL1        0.1030
     39 H          -7.9794    9.0994   -0.3222 H       1  UNL1        0.1048
     40 H          -6.5659   10.4040    4.3464 H       1  UNL1        0.1438
     41 H          -6.0814    8.7514    4.0396 H       1  UNL1        0.1438
     42 H          -1.8345   10.3781   -1.0532 H       1  UNL1        0.2101
@<TRIPOS>BOND
     1     1     2    1
     2     1     3    1
     3     1     4    1
     4     1     8    1
     5     5     6    1
     6     5     7    1
     7     5     8    1
     8     5     9    1
     9     9    10    1
    10    10    11    1
    11    11    12    1
    12    11    13    1
    13    12    21    1
    14    13    14    1
    15    13    19    1
    16    14    15    1
    17    15    16    1
    18    15    17    1
    19    15    18    1
    20    19    20    1
    21    19    21    1
    22    21    22    1
    23    22    23   ar
    24    22    31   ar
    25    23    24   ar
    26    24    25   ar
    27    25    26   ar
    28    25    31   ar
    29    26    27    1
    30    26    28   ar
    31    28    29   ar
    32    29    30   ar
    33    30    31   ar
    34    32    10    1
    35    33    10    1
    36    11    34    1
    37    13    35    1
    38    19    36    1
    39    21    37    1
    40    38    23    1
    41    39    29    1
    42    40    27    1
    43    41    27    1
    44    42    20    1
@<TRIPOS>SUBSTRUCTURE
     1 UNL1        1 TEMP              0 ****  ****    0 ROOT

########## Name:	5	1811.05  0.923833
@<TRIPOS>MOLECULE
af2_protein.mol25	
 42 44 1 0 0
SMALL
GASTEIGER


@<TRIPOS>ATOM
      1 P          -9.5352   13.2947   -5.9670 P.3     1  UNL1        0.0544
      2 O         -10.0038   14.4966   -6.6858 O.co2   1  UNL1       -0.6615
      3 O          -8.3954   12.5731   -6.6282 O.co2   1  UNL1       -0.6615
      4 O         -10.6284   12.3933   -5.5343 O.co2   1  UNL1       -0.6615
      5 P          -7.7813   13.2998   -3.3626 P.3     1  UNL1        0.2491
      6 O          -6.6951   12.6382   -4.1446 O.co2   1  UNL1       -0.6337
      7 O          -8.4427   12.5292   -2.2750 O.co2   1  UNL1       -0.6337
      8 O          -8.8712   13.8579   -4.5699 O.3     1  UNL1       -0.0930
      9 O          -7.1434   14.6576   -2.7301 O.3     1  UNL1       -0.2057
     10 C          -5.9177   14.6240   -2.0258 C.3     1  UNL1        0.1232
     11 C          -6.1140   13.6280   -0.9208 C.3     1  UNL1        0.1214
     12 O          -5.4447   12.4369   -1.3478 O.3     1  UNL1       -0.3453
     13 C          -5.4497   14.0587    0.4154 C.3     1  UNL1        0.1593
     14 O          -6.2418   13.5601    1.5317 O.3     1  UNL1       -0.2421
     15 P          -7.8484   14.0887    1.7686 P.3     1  UNL1       -0.0004
     16 O          -7.8169   14.4234    3.2141 O.co2   1  UNL1       -0.6646
     17 O          -7.9435   15.2537    0.8524 O.co2   1  UNL1       -0.6646
     18 O          -8.7274   12.9523    1.3565 O.co2   1  UNL1       -0.6646
     19 C          -4.1106   13.3377    0.3198 C.3     1  UNL1        0.1329
     20 O          -3.5130   13.1835    1.6262 O.3     1  UNL1       -0.3845
     21 C          -4.6694   12.0133   -0.2369 C.3     1  UNL1        0.1668
     22 N          -3.6893   11.0665   -0.8148 N.ar    1  UNL1       -0.2855
     23 C          -3.4500    9.8273   -0.2755 C.ar    1  UNL1        0.1004
     24 N          -2.5492    9.1369   -0.9097 N.ar    1  UNL1       -0.2306
     25 C          -2.1301    9.9820   -1.9865 C.ar    1  UNL1        0.1473
     26 C          -1.1629    9.7905   -3.0634 C.ar    1  UNL1        0.1472
     27 N          -0.3758    8.7001   -3.1439 N.pl3   1  UNL1       -0.3413
     28 N          -1.0245   10.8003   -3.9625 N.ar    1  UNL1       -0.2188
     29 C          -1.7656   11.9041   -3.7859 C.ar    1  UNL1        0.1205
     30 N          -2.6819   12.2192   -2.8386 N.ar    1  UNL1       -0.2159
     31 C          -2.8302   11.1826   -1.9397 C.ar    1  UNL1        0.1674
     32 H          -5.1093   14.3067   -2.6846 H       1  UNL1        0.0631
     33 H          -5.6979   15.6071   -1.6096 H       1  UNL1        0.0631
     34 H          -7.1758   13.4329   -0.7704 H       1  UNL1        0.0650
     35 H          -5.3196   15.1396    0.4679 H       1  UNL1        0.0694
     36 H          -3.4346   13.8236   -0.3838 H       1  UNL1        0.0667
     37 H          -5.2956   11.5166    0.5043 H       1  UNL1        0.0866
     38 H          -3.9651    9.4579    0.5990 H       1  UNL1        0.1030
     39 H          -1.6042   12.6741   -4.5257 H       1  UNL1        0.1048
     40 H          -0.7664    7.8156   -3.4357 H       1  UNL1        0.1438
     41 H           0.6050    8.7671   -2.9123 H       1  UNL1        0.1438
     42 H          -2.9681   12.3932    1.6379 H       1  UNL1        0.2101
@<TRIPOS>BOND
     1     1     2    1
     2     1     3    1
     3     1     4    1
     4     1     8    1
     5     5     6    1
     6     5     7    1
     7     5     8    1
     8     5     9    1
     9     9    10    1
    10    10    11    1
    11    11    12    1
    12    11    13    1
    13    12    21    1
    14    13    14    1
    15    13    19    1
    16    14    15    1
    17    15    16    1
    18    15    17    1
    19    15    18    1
    20    19    20    1
    21    19    21    1
    22    21    22    1
    23    22    23   ar
    24    22    31   ar
    25    23    24   ar
    26    24    25   ar
    27    25    26   ar
    28    25    31   ar
    29    26    27    1
    30    26    28   ar
    31    28    29   ar
    32    29    30   ar
    33    30    31   ar
    34    32    10    1
    35    33    10    1
    36    11    34    1
    37    13    35    1
    38    19    36    1
    39    21    37    1
    40    38    23    1
    41    39    29    1
    42    40    27    1
    43    41    27    1
    44    42    20    1
@<TRIPOS>SUBSTRUCTURE
     1 UNL1        1 TEMP              0 ****  ****    0 ROOT

########## Name:	6	2128.8  0.928114
@<TRIPOS>MOLECULE
af2_protein.mol26	
 42 44 1 0 0
SMALL
GASTEIGER


@<TRIPOS>ATOM
      1 P         -10.5965   14.3911   -3.7574 P.3     1  UNL1        0.0544
      2 O         -11.6410   13.7685   -4.5955 O.co2   1  UNL1       -0.6615
      3 O         -10.7222   14.1102   -2.2870 O.co2   1  UNL1       -0.6615
      4 O         -10.3587   15.8210   -4.0636 O.co2   1  UNL1       -0.6615
      5 P          -7.6293   13.3949   -3.5084 P.3     1  UNL1        0.2491
      6 O          -7.8955   13.0972   -2.0697 O.co2   1  UNL1       -0.6337
      7 O          -6.6729   14.4850   -3.8420 O.co2   1  UNL1       -0.6337
      8 O          -9.1976   13.6295   -4.1734 O.3     1  UNL1       -0.0930
      9 O          -7.1028   12.0105   -4.1841 O.3     1  UNL1       -0.2057
     10 C          -6.0615   11.2621   -3.5883 C.3     1  UNL1        0.1232
     11 C          -4.9021   12.2071   -3.4689 C.3     1  UNL1        0.1214
     12 O          -4.8651   12.6052   -2.0944 O.3     1  UNL1       -0.3453
     13 C          -3.5344   11.5386   -3.7771 C.3     1  UNL1        0.1593
     14 O          -2.6439   12.5180   -4.3851 O.3     1  UNL1       -0.2421
     15 P          -3.0208   13.2246   -5.8935 P.3     1  UNL1       -0.0004
     16 O          -1.7285   13.0598   -6.6044 O.co2   1  UNL1       -0.6646
     17 O          -4.1267   12.3642   -6.3859 O.co2   1  UNL1       -0.6646
     18 O          -3.4589   14.6235   -5.6021 O.co2   1  UNL1       -0.6646
     19 C          -3.0717   11.1637   -2.3744 C.3     1  UNL1        0.1329
     20 O          -1.6405   10.9692   -2.3378 O.3     1  UNL1       -0.3845
     21 C          -3.5095   12.4759   -1.6941 C.3     1  UNL1        0.1668
     22 N          -3.5638   12.4742   -0.2148 N.ar    1  UNL1       -0.2855
     23 C          -2.7503   13.2656    0.5570 C.ar    1  UNL1        0.1004
     24 N          -2.9305   13.1241    1.8367 N.ar    1  UNL1       -0.2306
     25 C          -3.9659   12.1427    1.9551 C.ar    1  UNL1        0.1473
     26 C          -4.6337   11.5572    3.1141 C.ar    1  UNL1        0.1472
     27 N          -4.2567   11.8266    4.3791 N.pl3   1  UNL1       -0.3413
     28 N          -5.6217   10.6556    2.8734 N.ar    1  UNL1       -0.2188
     29 C          -5.8975   10.3523    1.5964 C.ar    1  UNL1        0.1205
     30 N          -5.3584   10.8032    0.4377 N.ar    1  UNL1       -0.2159
     31 C          -4.3685   11.7312    0.6892 C.ar    1  UNL1        0.1674
     32 H          -6.3647   10.9059   -2.6037 H       1  UNL1        0.0631
     33 H          -5.7940   10.4193   -4.2256 H       1  UNL1        0.0631
     34 H          -5.0527   13.0751   -4.1109 H       1  UNL1        0.0650
     35 H          -3.6522   10.6581   -4.4086 H       1  UNL1        0.0694
     36 H          -3.6113   10.3012   -1.9834 H       1  UNL1        0.0667
     37 H          -2.9175   13.3157   -2.0579 H       1  UNL1        0.0866
     38 H          -2.0241   13.9464    0.1379 H       1  UNL1        0.1030
     39 H          -6.6842    9.6234    1.4699 H       1  UNL1        0.1048
     40 H          -4.4799   12.7203    4.7933 H       1  UNL1        0.1438
     41 H          -3.7507   11.1348    4.9134 H       1  UNL1        0.1438
     42 H          -1.3099   11.1866   -1.4631 H       1  UNL1        0.2101
@<TRIPOS>BOND
     1     1     2    1
     2     1     3    1
     3     1     4    1
     4     1     8    1
     5     5     6    1
     6     5     7    1
     7     5     8    1
     8     5     9    1
     9     9    10    1
    10    10    11    1
    11    11    12    1
    12    11    13    1
    13    12    21    1
    14    13    14    1
    15    13    19    1
    16    14    15    1
    17    15    16    1
    18    15    17    1
    19    15    18    1
    20    19    20    1
    21    19    21    1
    22    21    22    1
    23    22    23   ar
    24    22    31   ar
    25    23    24   ar
    26    24    25   ar
    27    25    26   ar
    28    25    31   ar
    29    26    27    1
    30    26    28   ar
    31    28    29   ar
    32    29    30   ar
    33    30    31   ar
    34    32    10    1
    35    33    10    1
    36    11    34    1
    37    13    35    1
    38    19    36    1
    39    21    37    1
    40    38    23    1
    41    39    29    1
    42    40    27    1
    43    41    27    1
    44    42    20    1
@<TRIPOS>SUBSTRUCTURE
     1 UNL1        1 TEMP              0 ****  ****    0 ROOT

########## Name:	7	2330.41  0.931021
@<TRIPOS>MOLECULE
af2_protein.mol27	
 42 44 1 0 0
SMALL
GASTEIGER


@<TRIPOS>ATOM
      1 P          -2.5029   14.6103   -6.8414 P.3     1  UNL1        0.0544
      2 O          -1.6204   13.9758   -7.8412 O.co2   1  UNL1       -0.6615
      3 O          -3.9723   14.4429   -7.1058 O.co2   1  UNL1       -0.6615
      4 O          -2.1217   16.0020   -6.5058 O.co2   1  UNL1       -0.6615
      5 P          -3.0812   13.5028   -3.9608 P.3     1  UNL1        0.2491
      6 O          -4.5076   13.3227   -4.3632 O.co2   1  UNL1       -0.6337
      7 O          -2.7595   14.5218   -2.9252 O.co2   1  UNL1       -0.6337
      8 O          -2.2655   13.7585   -5.4528 O.3     1  UNL1       -0.0930
      9 O          -2.5511   12.0507   -3.4500 O.3     1  UNL1       -0.2057
     10 C          -3.2866   11.3016   -2.5027 C.3     1  UNL1        0.1232
     11 C          -3.4430   12.1999   -1.3109 C.3     1  UNL1        0.1214
     12 O          -4.7848   12.6948   -1.3707 O.3     1  UNL1       -0.3453
     13 C          -3.3036   11.4501    0.0421 C.3     1  UNL1        0.1593
     14 O          -2.7110   12.3418    1.0299 O.3     1  UNL1       -0.2421
     15 P          -1.1303   12.9530    0.8192 P.3     1  UNL1       -0.0004
     16 O          -0.5495   12.6792    2.1572 O.co2   1  UNL1       -0.6646
     17 O          -0.6022   12.1095   -0.2833 O.co2   1  UNL1       -0.6646
     18 O          -1.2852   14.3876    0.4298 O.co2   1  UNL1       -0.6646
     19 C          -4.7641   11.1579    0.3641 C.3     1  UNL1        0.1329
     20 O          -4.9404   10.9025    1.7753 O.3     1  UNL1       -0.3845
     21 C          -5.3114   12.5343   -0.0625 C.3     1  UNL1        0.1668
     22 N          -6.7767   12.6427   -0.2423 N.ar    1  UNL1       -0.2855
     23 C          -7.5614   13.4508    0.5418 C.ar    1  UNL1        0.1004
     24 N          -8.8268   13.4110    0.2464 N.ar    1  UNL1       -0.2306
     25 C          -8.9202   12.4882   -0.8440 C.ar    1  UNL1        0.1473
     26 C         -10.0529   12.0191   -1.6369 C.ar    1  UNL1        0.1472
     27 N         -11.3249   12.3626   -1.3556 N.pl3   1  UNL1       -0.3413
     28 N          -9.7882   11.1475   -2.6456 N.ar    1  UNL1       -0.2188
     29 C          -8.5156   10.7648   -2.8268 C.ar    1  UNL1        0.1205
     30 N          -7.3810   11.1057   -2.1689 N.ar    1  UNL1       -0.2159
     31 C          -7.6548   12.0042   -1.1579 C.ar    1  UNL1        0.1674
     32 H          -4.2626   11.0319   -2.9063 H       1  UNL1        0.0631
     33 H          -2.7347   10.4036   -2.2253 H       1  UNL1        0.0631
     34 H          -2.7322   13.0248   -1.3620 H       1  UNL1        0.0650
     35 H          -2.7260   10.5322   -0.0663 H       1  UNL1        0.0694
     36 H          -5.1640   10.3511   -0.2500 H       1  UNL1        0.0667
     37 H          -4.9447   13.3180    0.6004 H       1  UNL1        0.0866
     38 H          -7.1625   14.0661    1.3349 H       1  UNL1        0.1030
     39 H          -8.3702   10.0647   -3.6361 H       1  UNL1        0.1048
     40 H         -11.6555   13.2932   -1.5674 H       1  UNL1        0.1438
     41 H         -11.9480   11.6895   -0.9328 H       1  UNL1        0.1438
     42 H          -5.8239   11.1680    2.0409 H       1  UNL1        0.2101
@<TRIPOS>BOND
     1     1     2    1
     2     1     3    1
     3     1     4    1
     4     1     8    1
     5     5     6    1
     6     5     7    1
     7     5     8    1
     8     5     9    1
     9     9    10    1
    10    10    11    1
    11    11    12    1
    12    11    13    1
    13    12    21    1
    14    13    14    1
    15    13    19    1
    16    14    15    1
    17    15    16    1
    18    15    17    1
    19    15    18    1
    20    19    20    1
    21    19    21    1
    22    21    22    1
    23    22    23   ar
    24    22    31   ar
    25    23    24   ar
    26    24    25   ar
    27    25    26   ar
    28    25    31   ar
    29    26    27    1
    30    26    28   ar
    31    28    29   ar
    32    29    30   ar
    33    30    31   ar
    34    32    10    1
    35    33    10    1
    36    11    34    1
    37    13    35    1
    38    19    36    1
    39    21    37    1
    40    38    23    1
    41    39    29    1
    42    40    27    1
    43    41    27    1
    44    42    20    1
@<TRIPOS>SUBSTRUCTURE
     1 UNL1        1 TEMP              0 ****  ****    0 ROOT

########## Name:	8	2960.4  0.919833
@<TRIPOS>MOLECULE
af2_protein.mol28	
 42 44 1 0 0
SMALL
GASTEIGER


@<TRIPOS>ATOM
      1 P          -7.7256    6.8927   -0.0345 P.3     1  UNL1        0.0544
      2 O          -8.6810    6.5485    1.0377 O.co2   1  UNL1       -0.6615
      3 O          -8.3609    7.3033   -1.3325 O.co2   1  UNL1       -0.6615
      4 O          -6.6342    5.9050   -0.2018 O.co2   1  UNL1       -0.6615
      5 P          -6.0714    9.5556   -0.2125 P.3     1  UNL1        0.2491
      6 O          -6.8170    9.8845   -1.4635 O.co2   1  UNL1       -0.6337
      7 O          -4.6141    9.2705   -0.3094 O.co2   1  UNL1       -0.6337
      8 O          -6.9790    8.2679    0.4767 O.3     1  UNL1       -0.0930
      9 O          -6.2947   10.8039    0.8084 O.3     1  UNL1       -0.2057
     10 C          -6.0752   12.1353    0.3860 C.3     1  UNL1        0.1232
     11 C          -4.6605   12.1728   -0.1130 C.3     1  UNL1        0.1214
     12 O          -4.7517   12.1548   -1.5415 O.3     1  UNL1       -0.3453
     13 C          -3.9116   13.4783    0.2701 C.3     1  UNL1        0.1593
     14 O          -2.4994   13.1837    0.4728 O.3     1  UNL1       -0.2421
     15 P          -1.9964   12.1290    1.7183 P.3     1  UNL1       -0.0004
     16 O          -0.9109   12.9311    2.3354 O.co2   1  UNL1       -0.6646
     17 O          -3.2254   11.9910    2.5406 O.co2   1  UNL1       -0.6646
     18 O          -1.5983   10.8528    1.0500 O.co2   1  UNL1       -0.6646
     19 C          -4.1289   14.3166   -0.9838 C.3     1  UNL1        0.1329
     20 O          -3.1438   15.3694   -1.0780 O.3     1  UNL1       -0.3845
     21 C          -3.8801   13.1794   -1.9943 C.3     1  UNL1        0.1668
     22 N          -4.3004   13.4257   -3.3921 N.ar    1  UNL1       -0.2855
     23 C          -3.4089   13.4848   -4.4340 C.ar    1  UNL1        0.1004
     24 N          -3.9570   13.7198   -5.5893 N.ar    1  UNL1       -0.2306
     25 C          -5.3574   13.8326   -5.3150 C.ar    1  UNL1        0.1473
     26 C          -6.5092   14.0738   -6.1792 C.ar    1  UNL1        0.1472
     27 N          -6.3841   14.3458   -7.4928 N.pl3   1  UNL1       -0.3413
     28 N          -7.7352   14.0883   -5.5927 N.ar    1  UNL1       -0.2188
     29 C          -7.7986   13.9032   -4.2659 C.ar    1  UNL1        0.1205
     30 N          -6.8245   13.6829   -3.3500 N.ar    1  UNL1       -0.2159
     31 C          -5.5845   13.6516   -3.9550 C.ar    1  UNL1        0.1674
     32 H          -6.7675   12.3995   -0.4135 H       1  UNL1        0.0631
     33 H          -6.1945   12.8193    1.2261 H       1  UNL1        0.0631
     34 H          -4.1099   11.3018    0.2425 H       1  UNL1        0.0650
     35 H          -4.3523   13.9499    1.1484 H       1  UNL1        0.0694
     36 H          -5.1464   14.7025   -1.0456 H       1  UNL1        0.0667
     37 H          -2.8422   12.8487   -1.9556 H       1  UNL1        0.0866
     38 H          -2.3453   13.3480   -4.3054 H       1  UNL1        0.1030
     39 H          -8.7978   13.9354   -3.8573 H       1  UNL1        0.1048
     40 H          -6.1441   13.6091   -8.1406 H       1  UNL1        0.1438
     41 H          -6.5302   15.2867   -7.8297 H       1  UNL1        0.1438
     42 H          -2.9851   15.5779   -2.0016 H       1  UNL1        0.2101
@<TRIPOS>BOND
     1     1     2    1
     2     1     3    1
     3     1     4    1
     4     1     8    1
     5     5     6    1
     6     5     7    1
     7     5     8    1
     8     5     9    1
     9     9    10    1
    10    10    11    1
    11    11    12    1
    12    11    13    1
    13    12    21    1
    14    13    14    1
    15    13    19    1
    16    14    15    1
    17    15    16    1
    18    15    17    1
    19    15    18    1
    20    19    20    1
    21    19    21    1
    22    21    22    1
    23    22    23   ar
    24    22    31   ar
    25    23    24   ar
    26    24    25   ar
    27    25    26   ar
    28    25    31   ar
    29    26    27    1
    30    26    28   ar
    31    28    29   ar
    32    29    30   ar
    33    30    31   ar
    34    32    10    1
    35    33    10    1
    36    11    34    1
    37    13    35    1
    38    19    36    1
    39    21    37    1
    40    38    23    1
    41    39    29    1
    42    40    27    1
    43    41    27    1
    44    42    20    1
@<TRIPOS>SUBSTRUCTURE
     1 UNL1        1 TEMP              0 ****  ****    0 ROOT

########## Name:	9	1717.41  0.937513
@<TRIPOS>MOLECULE
af2_protein.mol29	
 42 44 1 0 0
SMALL
GASTEIGER


@<TRIPOS>ATOM
      1 P          -7.4860   13.6419   -7.3395 P.3     1  UNL1        0.0544
      2 O          -8.0953   12.7614   -8.3566 O.co2   1  UNL1       -0.6615
      3 O          -8.4467   14.1748   -6.3148 O.co2   1  UNL1       -0.6615
      4 O          -6.5954   14.6816   -7.9058 O.co2   1  UNL1       -0.6615
      5 P          -5.7244   12.6843   -4.9232 P.3     1  UNL1        0.2491
      6 O          -6.7828   13.1977   -4.0039 O.co2   1  UNL1       -0.6337
      7 O          -4.4000   13.3628   -4.9293 O.co2   1  UNL1       -0.6337
      8 O          -6.4937   12.6655   -6.4610 O.3     1  UNL1       -0.0930
      9 O          -5.5068   11.1131   -4.5569 O.3     1  UNL1       -0.2057
     10 C          -5.3037   10.7009   -3.2196 C.3     1  UNL1        0.1232
     11 C          -4.1126   11.4742   -2.7351 C.3     1  UNL1        0.1214
     12 O          -4.6377   12.5225   -1.9138 O.3     1  UNL1       -0.3453
     13 C          -3.1638   10.6355   -1.8360 C.3     1  UNL1        0.1593
     14 O          -1.7913   11.0828   -2.0321 O.3     1  UNL1       -0.2421
     15 P          -1.0322   10.9330   -3.5546 P.3     1  UNL1       -0.0004
     16 O           0.2600   10.3205   -3.1579 O.co2   1  UNL1       -0.6646
     17 O          -1.9579   10.0341   -4.2900 O.co2   1  UNL1       -0.6646
     18 O          -0.9788   12.3103   -4.1324 O.co2   1  UNL1       -0.6646
     19 C          -3.6750   11.0060   -0.4490 C.3     1  UNL1        0.1329
     20 O          -2.6721   10.7443    0.5577 O.3     1  UNL1       -0.3845
     21 C          -3.8547   12.5109   -0.7300 C.3     1  UNL1        0.1668
     22 N          -4.6577   13.2805    0.2469 N.ar    1  UNL1       -0.2855
     23 C          -4.1263   14.2889    1.0114 C.ar    1  UNL1        0.1004
     24 N          -4.9771   14.8461    1.8214 N.ar    1  UNL1       -0.2306
     25 C          -6.2094   14.1549    1.5914 C.ar    1  UNL1        0.1473
     26 C          -7.5427   14.3107    2.1659 C.ar    1  UNL1        0.1472
     27 N          -7.8006   15.1653    3.1749 N.pl3   1  UNL1       -0.3413
     28 N          -8.5233   13.4976    1.6923 N.ar    1  UNL1       -0.2188
     29 C          -8.1948   12.5998    0.7517 C.ar    1  UNL1        0.1205
     30 N          -7.0122   12.3400    0.1432 N.ar    1  UNL1       -0.2159
     31 C          -6.0254   13.1810    0.6160 C.ar    1  UNL1        0.1674
     32 H          -6.1796   10.9322   -2.6134 H       1  UNL1        0.0631
     33 H          -5.0957    9.6315   -3.1848 H       1  UNL1        0.0631
     34 H          -3.5635   11.8927   -3.5786 H       1  UNL1        0.0650
     35 H          -3.2685    9.5680   -2.0293 H       1  UNL1        0.0694
     36 H          -4.6218   10.5175   -0.2189 H       1  UNL1        0.0667
     37 H          -2.8905   12.9899   -0.8999 H       1  UNL1        0.0866
     38 H          -3.0921   14.5930    0.9458 H       1  UNL1        0.1030
     39 H          -9.0134   11.9768    0.4230 H       1  UNL1        0.1048
     40 H          -7.8402   16.1589    2.9977 H       1  UNL1        0.1438
     41 H          -7.9541   14.8125    4.1087 H       1  UNL1        0.1438
     42 H          -2.7848   11.3562    1.2888 H       1  UNL1        0.2101
@<TRIPOS>BOND
     1     1     2    1
     2     1     3    1
     3     1     4    1
     4     1     8    1
     5     5     6    1
     6     5     7    1
     7     5     8    1
     8     5     9    1
     9     9    10    1
    10    10    11    1
    11    11    12    1
    12    11    13    1
    13    12    21    1
    14    13    14    1
    15    13    19    1
    16    14    15    1
    17    15    16    1
    18    15    17    1
    19    15    18    1
    20    19    20    1
    21    19    21    1
    22    21    22    1
    23    22    23   ar
    24    22    31   ar
    25    23    24   ar
    26    24    25   ar
    27    25    26   ar
    28    25    31   ar
    29    26    27    1
    30    26    28   ar
    31    28    29   ar
    32    29    30   ar
    33    30    31   ar
    34    32    10    1
    35    33    10    1
    36    11    34    1
    37    13    35    1
    38    19    36    1
    39    21    37    1
    40    38    23    1
    41    39    29    1
    42    40    27    1
    43    41    27    1
    44    42    20    1
@<TRIPOS>SUBSTRUCTURE
     1 UNL1        1 TEMP              0 ****  ****    0 ROOT

########## Name:	10	1498.72  0.920895
@<TRIPOS>MOLECULE
af2_protein.mol210	
 42 44 1 0 0
SMALL
GASTEIGER


@<TRIPOS>ATOM
      1 P          -6.0136   14.2891    4.2414 P.3     1  UNL1        0.0544
      2 O          -7.1869   14.7809    4.9913 O.co2   1  UNL1       -0.6615
      3 O          -5.8349   12.7976    4.2642 O.co2   1  UNL1       -0.6615
      4 O          -4.7658   15.0342    4.5287 O.co2   1  UNL1       -0.6615
      5 P          -5.8075   14.0827    1.1151 P.3     1  UNL1        0.2491
      6 O          -5.7015   12.6008    1.2631 O.co2   1  UNL1       -0.6337
      7 O          -4.6250   14.8315    0.6099 O.co2   1  UNL1       -0.6337
      8 O          -6.3451   14.6096    2.6611 O.3     1  UNL1       -0.0930
      9 O          -7.0693   14.3661    0.1262 O.3     1  UNL1       -0.2057
     10 C          -7.1873   13.6924   -1.1114 C.3     1  UNL1        0.1232
     11 C          -5.9194   13.9909   -1.8563 C.3     1  UNL1        0.1214
     12 O          -5.1154   12.8120   -1.7433 O.3     1  UNL1       -0.3453
     13 C          -6.1447   14.2338   -3.3737 C.3     1  UNL1        0.1593
     14 O          -5.1702   15.2021   -3.8581 O.3     1  UNL1       -0.2421
     15 P          -5.1552   16.8016   -3.2596 P.3     1  UNL1       -0.0004
     16 O          -5.0892   17.5687   -4.5283 O.co2   1  UNL1       -0.6646
     17 O          -6.4493   16.8878   -2.5360 O.co2   1  UNL1       -0.6646
     18 O          -3.9734   16.8964   -2.3497 O.co2   1  UNL1       -0.6646
     19 C          -5.8709   12.8434   -3.9342 C.3     1  UNL1        0.1329
     20 O          -5.5452   12.9088   -5.3404 O.3     1  UNL1       -0.3845
     21 C          -4.6415   12.5438   -3.0540 C.3     1  UNL1        0.1668
     22 N          -4.1886   11.1356   -2.9981 N.ar    1  UNL1       -0.2855
     23 C          -2.9656   10.7316   -3.4722 C.ar    1  UNL1        0.1004
     24 N          -2.7431    9.4566   -3.3493 N.ar    1  UNL1       -0.2306
     25 C          -3.9250    8.9356   -2.7323 C.ar    1  UNL1        0.1473
     26 C          -4.2994    7.5880   -2.3131 C.ar    1  UNL1        0.1472
     27 N          -3.5287    6.5118   -2.5640 N.pl3   1  UNL1       -0.3413
     28 N          -5.5094    7.4364   -1.7132 N.ar    1  UNL1       -0.2188
     29 C          -6.2795    8.5250   -1.5691 C.ar    1  UNL1        0.1205
     30 N          -6.0678    9.8177   -1.9161 N.ar    1  UNL1       -0.2159
     31 C          -4.8303    9.9672   -2.5082 C.ar    1  UNL1        0.1674
     32 H          -7.2907   12.6191   -0.9515 H       1  UNL1        0.0631
     33 H          -8.0456   14.0732   -1.6647 H       1  UNL1        0.0631
     34 H          -5.4079   14.8428   -1.4081 H       1  UNL1        0.0650
     35 H          -7.1654   14.5551   -3.5807 H       1  UNL1        0.0694
     36 H          -6.6922   12.1546   -3.7368 H       1  UNL1        0.0667
     37 H          -3.8138   13.2059   -3.3085 H       1  UNL1        0.0866
     38 H          -2.2507   11.4133   -3.9090 H       1  UNL1        0.1030
     39 H          -7.2319    8.3393   -1.0950 H       1  UNL1        0.1048
     40 H          -2.6816    6.3626   -2.0347 H       1  UNL1        0.1438
     41 H          -3.7981    5.8541   -3.2816 H       1  UNL1        0.1438
     42 H          -4.9611   12.1818   -5.5681 H       1  UNL1        0.2101
@<TRIPOS>BOND
     1     1     2    1
     2     1     3    1
     3     1     4    1
     4     1     8    1
     5     5     6    1
     6     5     7    1
     7     5     8    1
     8     5     9    1
     9     9    10    1
    10    10    11    1
    11    11    12    1
    12    11    13    1
    13    12    21    1
    14    13    14    1
    15    13    19    1
    16    14    15    1
    17    15    16    1
    18    15    17    1
    19    15    18    1
    20    19    20    1
    21    19    21    1
    22    21    22    1
    23    22    23   ar
    24    22    31   ar
    25    23    24   ar
    26    24    25   ar
    27    25    26   ar
    28    25    31   ar
    29    26    27    1
    30    26    28   ar
    31    28    29   ar
    32    29    30   ar
    33    30    31   ar
    34    32    10    1
    35    33    10    1
    36    11    34    1
    37    13    35    1
    38    19    36    1
    39    21    37    1
    40    38    23    1
    41    39    29    1
    42    40    27    1
    43    41    27    1
    44    42    20    1
@<TRIPOS>SUBSTRUCTURE
     1 UNL1        1 TEMP              0 ****  ****    0 ROOT

########## Name:	11	2211.7  0.922961
@<TRIPOS>MOLECULE
af2_protein.mol211	
 42 44 1 0 0
SMALL
GASTEIGER


@<TRIPOS>ATOM
      1 P          -8.9396   10.6608    2.7293 P.3     1  UNL1        0.0544
      2 O          -9.9262   11.4043    3.5386 O.co2   1  UNL1       -0.6615
      3 O          -9.4745   10.1116    1.4374 O.co2   1  UNL1       -0.6615
      4 O          -8.1524    9.6743    3.5052 O.co2   1  UNL1       -0.6615
      5 P          -6.6450   11.9523    1.0188 P.3     1  UNL1        0.2491
      6 O          -7.3068   11.4055   -0.2028 O.co2   1  UNL1       -0.6337
      7 O          -5.3177   11.4059    1.4113 O.co2   1  UNL1       -0.6337
      8 O          -7.8440   11.7880    2.2404 O.3     1  UNL1       -0.0930
      9 O          -6.5059   13.5591    0.7974 O.3     1  UNL1       -0.2057
     10 C          -5.9524   14.0825   -0.3938 C.3     1  UNL1        0.1232
     11 C          -4.5905   13.4639   -0.5123 C.3     1  UNL1        0.1214
     12 O          -4.7172   12.4306   -1.4948 O.3     1  UNL1       -0.3453
     13 C          -3.5142   14.4517   -1.0394 C.3     1  UNL1        0.1593
     14 O          -2.2257   14.1260   -0.4429 O.3     1  UNL1       -0.2421
     15 P          -1.9899   14.2402    1.2447 P.3     1  UNL1       -0.0004
     16 O          -0.7166   15.0010    1.2931 O.co2   1  UNL1       -0.6646
     17 O          -3.1917   14.9914    1.6887 O.co2   1  UNL1       -0.6646
     18 O          -1.9593   12.8370    1.7584 O.co2   1  UNL1       -0.6646
     19 C          -3.5320   14.1327   -2.5295 C.3     1  UNL1        0.1329
     20 O          -2.3061   14.5604   -3.1636 O.3     1  UNL1       -0.3845
     21 C          -3.6168   12.6013   -2.3749 C.3     1  UNL1        0.1668
     22 N          -3.9902   11.8290   -3.5813 N.ar    1  UNL1       -0.2855
     23 C          -3.1399   10.9331   -4.1797 C.ar    1  UNL1        0.1004
     24 N          -3.6337   10.3552   -5.2344 N.ar    1  UNL1       -0.2306
     25 C          -4.9476   10.9063   -5.3736 C.ar    1  UNL1        0.1473
     26 C          -6.0149   10.6638   -6.3399 C.ar    1  UNL1        0.1472
     27 N          -5.8536    9.8618   -7.4103 N.pl3   1  UNL1       -0.3413
     28 N          -7.1791   11.3429   -6.1648 N.ar    1  UNL1       -0.2188
     29 C          -7.2576   12.1995   -5.1358 C.ar    1  UNL1        0.1205
     30 N          -6.3548   12.5284   -4.1802 N.ar    1  UNL1       -0.2159
     31 C          -5.1820   11.8220   -4.3536 C.ar    1  UNL1        0.1674
     32 H          -6.5691   13.8113   -1.2507 H       1  UNL1        0.0631
     33 H          -5.8666   15.1667   -0.3221 H       1  UNL1        0.0631
     34 H          -4.2814   13.0416    0.4440 H       1  UNL1        0.0650
     35 H          -3.7935   15.4878   -0.8484 H       1  UNL1        0.0694
     36 H          -4.4124   14.5426   -3.0243 H       1  UNL1        0.0667
     37 H          -2.7026   12.2067   -1.9314 H       1  UNL1        0.0866
     38 H          -2.1476   10.7263   -3.8069 H       1  UNL1        0.1030
     39 H          -8.2027   12.7158   -5.0550 H       1  UNL1        0.1048
     40 H          -5.8324    8.8590   -7.2916 H       1  UNL1        0.1438
     41 H          -5.7538   10.2633   -8.3316 H       1  UNL1        0.1438
     42 H          -2.1200   13.9938   -3.9159 H       1  UNL1        0.2101
@<TRIPOS>BOND
     1     1     2    1
     2     1     3    1
     3     1     4    1
     4     1     8    1
     5     5     6    1
     6     5     7    1
     7     5     8    1
     8     5     9    1
     9     9    10    1
    10    10    11    1
    11    11    12    1
    12    11    13    1
    13    12    21    1
    14    13    14    1
    15    13    19    1
    16    14    15    1
    17    15    16    1
    18    15    17    1
    19    15    18    1
    20    19    20    1
    21    19    21    1
    22    21    22    1
    23    22    23   ar
    24    22    31   ar
    25    23    24   ar
    26    24    25   ar
    27    25    26   ar
    28    25    31   ar
    29    26    27    1
    30    26    28   ar
    31    28    29   ar
    32    29    30   ar
    33    30    31   ar
    34    32    10    1
    35    33    10    1
    36    11    34    1
    37    13    35    1
    38    19    36    1
    39    21    37    1
    40    38    23    1
    41    39    29    1
    42    40    27    1
    43    41    27    1
    44    42    20    1
@<TRIPOS>SUBSTRUCTURE
     1 UNL1        1 TEMP              0 ****  ****    0 ROOT

########## Name:	12	2686.07  0.939546
@<TRIPOS>MOLECULE
af2_protein.mol212	
 42 44 1 0 0
SMALL
GASTEIGER


@<TRIPOS>ATOM
      1 P         -10.6411   14.9594    0.0746 P.3     1  UNL1        0.0544
      2 O         -12.0308   14.4972   -0.1157 O.co2   1  UNL1       -0.6615
      3 O          -9.9702   14.4361    1.3127 O.co2   1  UNL1       -0.6615
      4 O         -10.4652   16.4180   -0.1165 O.co2   1  UNL1       -0.6615
      5 P          -8.1403   13.9060   -1.5051 P.3     1  UNL1        0.2491
      6 O          -7.6053   13.3729   -0.2171 O.co2   1  UNL1       -0.6337
      7 O          -7.4169   15.0271   -2.1639 O.co2   1  UNL1       -0.6337
      8 O          -9.7834   14.2648   -1.1469 O.3     1  UNL1       -0.0930
      9 O          -8.2132   12.6499   -2.5383 O.3     1  UNL1       -0.2057
     10 C          -7.0982   11.8015   -2.7292 C.3     1  UNL1        0.1232
     11 C          -5.9731   12.7014   -3.1490 C.3     1  UNL1        0.1214
     12 O          -5.1504   12.8619   -1.9887 O.3     1  UNL1       -0.3453
     13 C          -5.0731   12.0807   -4.2521 C.3     1  UNL1        0.1593
     14 O          -4.5656   13.1396   -5.1143 O.3     1  UNL1       -0.2421
     15 P          -5.6317   14.0938   -6.0469 P.3     1  UNL1       -0.0004
     16 O          -4.9631   14.0382   -7.3706 O.co2   1  UNL1       -0.6646
     17 O          -6.9076   13.3397   -5.9514 O.co2   1  UNL1       -0.6646
     18 O          -5.6940   15.4279   -5.3761 O.co2   1  UNL1       -0.6646
     19 C          -3.9597   11.4704   -3.4093 C.3     1  UNL1        0.1329
     20 O          -2.7700   11.2582   -4.2013 O.3     1  UNL1       -0.3845
     21 C          -3.8180   12.6535   -2.4315 C.3     1  UNL1        0.1668
     22 N          -3.0545   12.4033   -1.1882 N.ar    1  UNL1       -0.2855
     23 C          -1.8759   13.0453   -0.9011 C.ar    1  UNL1        0.1004
     24 N          -1.3404   12.6922    0.2297 N.ar    1  UNL1       -0.2306
     25 C          -2.2361   11.7152    0.7706 C.ar    1  UNL1        0.1473
     26 C          -2.2170   10.9496    2.0137 C.ar    1  UNL1        0.1472
     27 N          -1.1846   10.9984    2.8779 N.pl3   1  UNL1       -0.3413
     28 N          -3.2616   10.1113    2.2444 N.ar    1  UNL1       -0.2188
     29 C          -4.2198   10.0301    1.3096 C.ar    1  UNL1        0.1205
     30 N          -4.3594   10.6643    0.1202 N.ar    1  UNL1       -0.2159
     31 C          -3.3047   11.5268   -0.0992 C.ar    1  UNL1        0.1674
     32 H          -6.8481   11.2877   -1.8010 H       1  UNL1        0.0631
     33 H          -7.3102   11.0755   -3.5141 H       1  UNL1        0.0631
     34 H          -6.3610   13.6665   -3.4750 H       1  UNL1        0.0650
     35 H          -5.6059   11.3203   -4.8230 H       1  UNL1        0.0694
     36 H          -4.2822   10.5597   -2.9046 H       1  UNL1        0.0667
     37 H          -3.4394   13.5366   -2.9461 H       1  UNL1        0.0866
     38 H          -1.4322   13.7797   -1.5571 H       1  UNL1        0.1030
     39 H          -5.0170    9.3408    1.5453 H       1  UNL1        0.1048
     40 H          -1.0527   11.8118    3.4619 H       1  UNL1        0.1438
     41 H          -0.5424   10.2215    2.9417 H       1  UNL1        0.1438
     42 H          -1.9949   11.3220   -3.6385 H       1  UNL1        0.2101
@<TRIPOS>BOND
     1     1     2    1
     2     1     3    1
     3     1     4    1
     4     1     8    1
     5     5     6    1
     6     5     7    1
     7     5     8    1
     8     5     9    1
     9     9    10    1
    10    10    11    1
    11    11    12    1
    12    11    13    1
    13    12    21    1
    14    13    14    1
    15    13    19    1
    16    14    15    1
    17    15    16    1
    18    15    17    1
    19    15    18    1
    20    19    20    1
    21    19    21    1
    22    21    22    1
    23    22    23   ar
    24    22    31   ar
    25    23    24   ar
    26    24    25   ar
    27    25    26   ar
    28    25    31   ar
    29    26    27    1
    30    26    28   ar
    31    28    29   ar
    32    29    30   ar
    33    30    31   ar
    34    32    10    1
    35    33    10    1
    36    11    34    1
    37    13    35    1
    38    19    36    1
    39    21    37    1
    40    38    23    1
    41    39    29    1
    42    40    27    1
    43    41    27    1
    44    42    20    1
@<TRIPOS>SUBSTRUCTURE
     1 UNL1        1 TEMP              0 ****  ****    0 ROOT

########## Name:	13	2084.65  0.922348
@<TRIPOS>MOLECULE
af2_protein.mol213	
 42 44 1 0 0
SMALL
GASTEIGER


@<TRIPOS>ATOM
      1 P          -0.2508   12.8763    1.8489 P.3     1  UNL1        0.0544
      2 O           0.0721   12.3218    3.1791 O.co2   1  UNL1       -0.6615
      3 O           0.0785   11.9716    0.6956 O.co2   1  UNL1       -0.6615
      4 O           0.2141   14.2693    1.6536 O.co2   1  UNL1       -0.6615
      5 P          -3.1313   13.0944    0.6184 P.3     1  UNL1        0.2491
      6 O          -2.7035   12.1356   -0.4431 O.co2   1  UNL1       -0.6337
      7 O          -3.4368   14.4969    0.2262 O.co2   1  UNL1       -0.6337
      8 O          -1.8939   12.9671    1.8057 O.3     1  UNL1       -0.0930
      9 O          -4.4466   12.4504    1.3296 O.3     1  UNL1       -0.2057
     10 C          -5.5346   11.9838    0.5565 C.3     1  UNL1        0.1232
     11 C          -5.9669   13.1526   -0.2794 C.3     1  UNL1        0.1214
     12 O          -5.4451   12.9075   -1.5896 O.3     1  UNL1       -0.3453
     13 C          -7.5092   13.2618   -0.4264 C.3     1  UNL1        0.1593
     14 O          -7.8872   14.6652   -0.5243 O.3     1  UNL1       -0.2421
     15 P          -7.5952   15.7415    0.7691 P.3     1  UNL1       -0.0004
     16 O          -8.9178   16.4058    0.8773 O.co2   1  UNL1       -0.6646
     17 O          -7.2573   14.8214    1.8849 O.co2   1  UNL1       -0.6646
     18 O          -6.4418   16.5949    0.3505 O.co2   1  UNL1       -0.6646
     19 C          -7.7272   12.5351   -1.7480 C.3     1  UNL1        0.1329
     20 O          -8.9904   12.9102   -2.3410 O.3     1  UNL1       -0.3845
     21 C          -6.5207   13.1520   -2.4828 C.3     1  UNL1        0.1668
     22 N          -6.1037   12.4998   -3.7445 N.ar    1  UNL1       -0.2855
     23 C          -6.1671   13.1320   -4.9611 C.ar    1  UNL1        0.1004
     24 N          -5.7694   12.4018   -5.9605 N.ar    1  UNL1       -0.2306
     25 C          -5.3974   11.1496   -5.3750 C.ar    1  UNL1        0.1473
     26 C          -4.8598    9.9199   -5.9499 C.ar    1  UNL1        0.1472
     27 N          -4.7103    9.7467   -7.2776 N.pl3   1  UNL1       -0.3413
     28 N          -4.5761    8.9042   -5.0926 N.ar    1  UNL1       -0.2188
     29 C          -4.8290    9.0936   -3.7892 C.ar    1  UNL1        0.1205
     30 N          -5.3305   10.1635   -3.1258 N.ar    1  UNL1       -0.2159
     31 C          -5.5994   11.1970   -3.9999 C.ar    1  UNL1        0.1674
     32 H          -5.2214   11.1562   -0.0801 H       1  UNL1        0.0631
     33 H          -6.3489   11.6676    1.2083 H       1  UNL1        0.0631
     34 H          -5.5582   14.0791    0.1241 H       1  UNL1        0.0650
     35 H          -8.0260   12.7642    0.3941 H       1  UNL1        0.0694
     36 H          -7.6313   11.4547   -1.6406 H       1  UNL1        0.0667
     37 H          -6.6646   14.2223   -2.6305 H       1  UNL1        0.0866
     38 H          -6.5168   14.1472   -5.0779 H       1  UNL1        0.1030
     39 H          -4.5924    8.2481   -3.1604 H       1  UNL1        0.1048
     40 H          -3.9623   10.2166   -7.7672 H       1  UNL1        0.1438
     41 H          -5.3463    9.1469   -7.7833 H       1  UNL1        0.1438
     42 H          -8.9282   12.8428   -3.2966 H       1  UNL1        0.2101
@<TRIPOS>BOND
     1     1     2    1
     2     1     3    1
     3     1     4    1
     4     1     8    1
     5     5     6    1
     6     5     7    1
     7     5     8    1
     8     5     9    1
     9     9    10    1
    10    10    11    1
    11    11    12    1
    12    11    13    1
    13    12    21    1
    14    13    14    1
    15    13    19    1
    16    14    15    1
    17    15    16    1
    18    15    17    1
    19    15    18    1
    20    19    20    1
    21    19    21    1
    22    21    22    1
    23    22    23   ar
    24    22    31   ar
    25    23    24   ar
    26    24    25   ar
    27    25    26   ar
    28    25    31   ar
    29    26    27    1
    30    26    28   ar
    31    28    29   ar
    32    29    30   ar
    33    30    31   ar
    34    32    10    1
    35    33    10    1
    36    11    34    1
    37    13    35    1
    38    19    36    1
    39    21    37    1
    40    38    23    1
    41    39    29    1
    42    40    27    1
    43    41    27    1
    44    42    20    1
@<TRIPOS>SUBSTRUCTURE
     1 UNL1        1 TEMP              0 ****  ****    0 ROOT

########## Name:	14	2091.81  0.922857
@<TRIPOS>MOLECULE
af2_protein.mol214	
 42 44 1 0 0
SMALL
GASTEIGER


@<TRIPOS>ATOM
      1 P          -0.4601   15.8953    0.3798 P.3     1  UNL1        0.0544
      2 O           0.6970   15.6092    1.2518 O.co2   1  UNL1       -0.6615
      3 O          -0.2241   15.6350   -1.0809 O.co2   1  UNL1       -0.6615
      4 O          -1.1001   17.2044    0.6468 O.co2   1  UNL1       -0.6615
      5 P          -3.0173   14.0949    0.1003 P.3     1  UNL1        0.2491
      6 O          -2.6426   13.8590   -1.3255 O.co2   1  UNL1       -0.6337
      7 O          -4.2508   14.8753    0.3898 O.co2   1  UNL1       -0.6337
      8 O          -1.5962   14.7762    0.7882 O.3     1  UNL1       -0.0930
      9 O          -3.1471   12.6305    0.7995 O.3     1  UNL1       -0.2057
     10 C          -3.9193   11.6071    0.2029 C.3     1  UNL1        0.1232
     11 C          -5.2954   12.1826    0.0394 C.3     1  UNL1        0.1214
     12 O          -5.4098   12.5291   -1.3448 O.3     1  UNL1       -0.3453
     13 C          -6.4252   11.1598    0.3384 C.3     1  UNL1        0.1593
     14 O          -7.5711   11.8575    0.9061 O.3     1  UNL1       -0.2421
     15 P          -7.4465   12.6689    2.4036 P.3     1  UNL1       -0.0004
     16 O          -8.6564   12.1576    3.0943 O.co2   1  UNL1       -0.6646
     17 O          -6.1548   12.1661    2.9369 O.co2   1  UNL1       -0.6646
     18 O          -7.4149   14.1291    2.0865 O.co2   1  UNL1       -0.6646
     19 C          -6.7285   10.6439   -1.0631 C.3     1  UNL1        0.1329
     20 O          -8.0449   10.0513   -1.1213 O.3     1  UNL1       -0.3845
     21 C          -6.6632   12.0139   -1.7668 C.3     1  UNL1        0.1668
     22 N          -6.5744   12.0010   -3.2443 N.ar    1  UNL1       -0.2855
     23 C          -7.5593   12.5155   -4.0499 C.ar    1  UNL1        0.1004
     24 N          -7.3151   12.4079   -5.3223 N.ar    1  UNL1       -0.2306
     25 C          -6.0418   11.7580   -5.3978 C.ar    1  UNL1        0.1473
     26 C          -5.2075   11.3650   -6.5298 C.ar    1  UNL1        0.1472
     27 N          -5.6142   11.4937   -7.8077 N.pl3   1  UNL1       -0.3413
     28 N          -4.0110   10.7847   -6.2491 N.ar    1  UNL1       -0.2188
     29 C          -3.6922   10.5950   -4.9604 C.ar    1  UNL1        0.1205
     30 N          -4.3649   10.8954   -3.8231 N.ar    1  UNL1       -0.2159
     31 C          -5.5705   11.5003   -4.1151 C.ar    1  UNL1        0.1674
     32 H          -3.5037   11.3338   -0.7670 H       1  UNL1        0.0631
     33 H          -3.9530   10.7347    0.8555 H       1  UNL1        0.0631
     34 H          -5.4121   13.0691    0.6629 H       1  UNL1        0.0650
     35 H          -6.0787   10.3602    0.9931 H       1  UNL1        0.0694
     36 H          -5.9576    9.9627   -1.4231 H       1  UNL1        0.0667
     37 H          -7.4773   12.6579   -1.4343 H       1  UNL1        0.0866
     38 H          -8.4585   12.9701   -3.6608 H       1  UNL1        0.1030
     39 H          -2.7347   10.1212   -4.8017 H       1  UNL1        0.1048
     40 H          -5.6428   12.4064   -8.2392 H       1  UNL1        0.1438
     41 H          -5.8906   10.6774   -8.3343 H       1  UNL1        0.1438
     42 H          -8.4019   10.1504   -2.0070 H       1  UNL1        0.2101
@<TRIPOS>BOND
     1     1     2    1
     2     1     3    1
     3     1     4    1
     4     1     8    1
     5     5     6    1
     6     5     7    1
     7     5     8    1
     8     5     9    1
     9     9    10    1
    10    10    11    1
    11    11    12    1
    12    11    13    1
    13    12    21    1
    14    13    14    1
    15    13    19    1
    16    14    15    1
    17    15    16    1
    18    15    17    1
    19    15    18    1
    20    19    20    1
    21    19    21    1
    22    21    22    1
    23    22    23   ar
    24    22    31   ar
    25    23    24   ar
    26    24    25   ar
    27    25    26   ar
    28    25    31   ar
    29    26    27    1
    30    26    28   ar
    31    28    29   ar
    32    29    30   ar
    33    30    31   ar
    34    32    10    1
    35    33    10    1
    36    11    34    1
    37    13    35    1
    38    19    36    1
    39    21    37    1
    40    38    23    1
    41    39    29    1
    42    40    27    1
    43    41    27    1
    44    42    20    1
@<TRIPOS>SUBSTRUCTURE
     1 UNL1        1 TEMP              0 ****  ****    0 ROOT

########## Name:	15	1684.04  0.923048
@<TRIPOS>MOLECULE
af2_protein.mol215	
 42 44 1 0 0
SMALL
GASTEIGER


@<TRIPOS>ATOM
      1 P          -0.8378    9.3720   -4.7737 P.3     1  UNL1        0.0544
      2 O          -0.0230    9.7142   -5.9569 O.co2   1  UNL1       -0.6615
      3 O          -0.2636    9.8298   -3.4631 O.co2   1  UNL1       -0.6615
      4 O          -1.2988    7.9642   -4.7527 O.co2   1  UNL1       -0.6615
      5 P          -3.4877   10.8173   -3.9090 P.3     1  UNL1        0.2491
      6 O          -2.7873   11.2666   -2.6694 O.co2   1  UNL1       -0.6337
      7 O          -4.6058    9.8440   -3.7788 O.co2   1  UNL1       -0.6337
      8 O          -2.2118   10.2665   -4.9217 O.3     1  UNL1       -0.0930
      9 O          -4.0432   12.1585   -4.6460 O.3     1  UNL1       -0.2057
     10 C          -4.7852   13.1259   -3.9298 C.3     1  UNL1        0.1232
     11 C          -5.9505   12.3865   -3.3408 C.3     1  UNL1        0.1214
     12 O          -5.6282   12.1898   -1.9600 O.3     1  UNL1       -0.3453
     13 C          -7.2730   13.1999   -3.3790 C.3     1  UNL1        0.1593
     14 O          -8.3967   12.2879   -3.5456 O.3     1  UNL1       -0.2421
     15 P          -8.5470   11.3342   -4.9543 P.3     1  UNL1       -0.0004
     16 O          -9.9660   11.5880   -5.3075 O.co2   1  UNL1       -0.6646
     17 O          -7.5494   11.9475   -5.8677 O.co2   1  UNL1       -0.6646
     18 O          -8.1885    9.9393   -4.5550 O.co2   1  UNL1       -0.6646
     19 C          -7.2688   13.8268   -1.9900 C.3     1  UNL1        0.1329
     20 O          -8.6004   14.2323   -1.6027 O.3     1  UNL1       -0.3845
     21 C          -6.7891   12.5701   -1.2373 C.3     1  UNL1        0.1668
     22 N          -6.3087   12.7660    0.1491 N.ar    1  UNL1       -0.2855
     23 C          -6.9401   12.2155    1.2364 C.ar    1  UNL1        0.1004
     24 N          -6.3834   12.5026    2.3756 N.ar    1  UNL1       -0.2306
     25 C          -5.2636   13.3284    2.0390 C.ar    1  UNL1        0.1473
     26 C          -4.2326   13.9625    2.8557 C.ar    1  UNL1        0.1472
     27 N          -4.2524   13.9268    4.2023 N.pl3   1  UNL1       -0.3413
     28 N          -3.2700   14.6680    2.2054 N.ar    1  UNL1       -0.2188
     29 C          -3.3465   14.7501    0.8690 C.ar    1  UNL1        0.1205
     30 N          -4.2412   14.2290   -0.0054 N.ar    1  UNL1       -0.2159
     31 C          -5.2052   13.4994    0.6602 C.ar    1  UNL1        0.1674
     32 H          -4.1751   13.5650   -3.1404 H       1  UNL1        0.0631
     33 H          -5.1383   13.9036   -4.6068 H       1  UNL1        0.0631
     34 H          -6.0817   11.4263   -3.8397 H       1  UNL1        0.0650
     35 H          -7.2540   13.9589   -4.1610 H       1  UNL1        0.0694
     36 H          -6.5540   14.6461   -1.9141 H       1  UNL1        0.0667
     37 H          -7.5436   11.7845   -1.2772 H       1  UNL1        0.0866
     38 H          -7.8221   11.5978    1.1528 H       1  UNL1        0.1030
     39 H          -2.5601   15.3315    0.4110 H       1  UNL1        0.1048
     40 H          -4.0112   13.0751    4.6886 H       1  UNL1        0.1438
     41 H          -4.5086   14.7518    4.7255 H       1  UNL1        0.1438
     42 H          -8.6838   14.1874   -0.6474 H       1  UNL1        0.2101
@<TRIPOS>BOND
     1     1     2    1
     2     1     3    1
     3     1     4    1
     4     1     8    1
     5     5     6    1
     6     5     7    1
     7     5     8    1
     8     5     9    1
     9     9    10    1
    10    10    11    1
    11    11    12    1
    12    11    13    1
    13    12    21    1
    14    13    14    1
    15    13    19    1
    16    14    15    1
    17    15    16    1
    18    15    17    1
    19    15    18    1
    20    19    20    1
    21    19    21    1
    22    21    22    1
    23    22    23   ar
    24    22    31   ar
    25    23    24   ar
    26    24    25   ar
    27    25    26   ar
    28    25    31   ar
    29    26    27    1
    30    26    28   ar
    31    28    29   ar
    32    29    30   ar
    33    30    31   ar
    34    32    10    1
    35    33    10    1
    36    11    34    1
    37    13    35    1
    38    19    36    1
    39    21    37    1
    40    38    23    1
    41    39    29    1
    42    40    27    1
    43    41    27    1
    44    42    20    1
@<TRIPOS>SUBSTRUCTURE
     1 UNL1        1 TEMP              0 ****  ****    0 ROOT

########## Name:	16	2491.83  0.918032
@<TRIPOS>MOLECULE
af2_protein.mol216	
 42 44 1 0 0
SMALL
GASTEIGER


@<TRIPOS>ATOM
      1 P           0.0574   10.3278   -4.2898 P.3     1  UNL1        0.0544
      2 O           0.8493   10.8237   -5.4335 O.co2   1  UNL1       -0.6615
      3 O           0.4011   10.9564   -2.9694 O.co2   1  UNL1       -0.6615
      4 O          -0.0430    8.8509   -4.2284 O.co2   1  UNL1       -0.6615
      5 P          -2.9241   11.0944   -3.6718 P.3     1  UNL1        0.2491
      6 O          -2.4510   11.7439   -2.4135 O.co2   1  UNL1       -0.6337
      7 O          -3.7746    9.8779   -3.5658 O.co2   1  UNL1       -0.6337
      8 O          -1.4795   10.8464   -4.5709 O.3     1  UNL1       -0.0930
      9 O          -3.7358   12.2302   -4.5093 O.3     1  UNL1       -0.2057
     10 C          -4.7448   13.0049   -3.8918 C.3     1  UNL1        0.1232
     11 C          -5.7329   12.0179   -3.3432 C.3     1  UNL1        0.1214
     12 O          -5.4767   11.9525   -1.9364 O.3     1  UNL1       -0.3453
     13 C          -7.2083   12.4744   -3.5076 C.3     1  UNL1        0.1593
     14 O          -8.0570   11.3063   -3.7008 O.3     1  UNL1       -0.2421
     15 P          -7.8617   10.3001   -5.0669 P.3     1  UNL1       -0.0004
     16 O          -9.2687   10.1808   -5.5233 O.co2   1  UNL1       -0.6646
     17 O          -6.9801   11.1128   -5.9432 O.co2   1  UNL1       -0.6646
     18 O          -7.2017    9.0522   -4.5760 O.co2   1  UNL1       -0.6646
     19 C          -7.4629   13.1272   -2.1543 C.3     1  UNL1        0.1329
     20 O          -8.8786   13.2004   -1.8748 O.3     1  UNL1       -0.3845
     21 C          -6.7464   12.0547   -1.3102 C.3     1  UNL1        0.1668
     22 N          -6.4346   12.4089    0.0928 N.ar    1  UNL1       -0.2855
     23 C          -6.9908   11.7539    1.1631 C.ar    1  UNL1        0.1004
     24 N          -6.6091   12.2074    2.3202 N.ar    1  UNL1       -0.2306
     25 C          -5.7051   13.2748    2.0159 C.ar    1  UNL1        0.1473
     26 C          -4.9264   14.1719    2.8648 C.ar    1  UNL1        0.1472
     27 N          -5.0378   14.1760    4.2074 N.pl3   1  UNL1       -0.3413
     28 N          -4.1211   15.0735    2.2438 N.ar    1  UNL1       -0.2188
     29 C          -4.1149   15.0907    0.9028 C.ar    1  UNL1        0.1205
     30 N          -4.7854   14.3351   -0.0005 N.ar    1  UNL1       -0.2159
     31 C          -5.5873   13.4103    0.6369 C.ar    1  UNL1        0.1674
     32 H          -4.3226   13.6074   -3.0875 H       1  UNL1        0.0631
     33 H          -5.2267   13.6478   -4.6283 H       1  UNL1        0.0631
     34 H          -5.5858   11.0396   -3.8011 H       1  UNL1        0.0650
     35 H          -7.3181   13.1885   -4.3236 H       1  UNL1        0.0694
     36 H          -6.9797   14.1008   -2.0734 H       1  UNL1        0.0667
     37 H          -7.2790   11.1050   -1.3596 H       1  UNL1        0.0866
     38 H          -7.6847   10.9335    1.0536 H       1  UNL1        0.1030
     39 H          -3.4637   15.8346    0.4682 H       1  UNL1        0.1048
     40 H          -4.6316   13.4274    4.7504 H       1  UNL1        0.1438
     41 H          -5.5278   14.9276    4.6711 H       1  UNL1        0.1438
     42 H          -9.0199   13.1671   -0.9258 H       1  UNL1        0.2101
@<TRIPOS>BOND
     1     1     2    1
     2     1     3    1
     3     1     4    1
     4     1     8    1
     5     5     6    1
     6     5     7    1
     7     5     8    1
     8     5     9    1
     9     9    10    1
    10    10    11    1
    11    11    12    1
    12    11    13    1
    13    12    21    1
    14    13    14    1
    15    13    19    1
    16    14    15    1
    17    15    16    1
    18    15    17    1
    19    15    18    1
    20    19    20    1
    21    19    21    1
    22    21    22    1
    23    22    23   ar
    24    22    31   ar
    25    23    24   ar
    26    24    25   ar
    27    25    26   ar
    28    25    31   ar
    29    26    27    1
    30    26    28   ar
    31    28    29   ar
    32    29    30   ar
    33    30    31   ar
    34    32    10    1
    35    33    10    1
    36    11    34    1
    37    13    35    1
    38    19    36    1
    39    21    37    1
    40    38    23    1
    41    39    29    1
    42    40    27    1
    43    41    27    1
    44    42    20    1
@<TRIPOS>SUBSTRUCTURE
     1 UNL1        1 TEMP              0 ****  ****    0 ROOT

########## Name:	17	1794.58  0.91631
@<TRIPOS>MOLECULE
af2_protein.mol217	
 42 44 1 0 0
SMALL
GASTEIGER


@<TRIPOS>ATOM
      1 P          -1.6415    7.8378   -3.9450 P.3     1  UNL1        0.0544
      2 O          -0.6362    7.7932   -5.0259 O.co2   1  UNL1       -0.6615
      3 O          -1.0963    8.2139   -2.5966 O.co2   1  UNL1       -0.6615
      4 O          -2.5325    6.6548   -3.9087 O.co2   1  UNL1       -0.6615
      5 P          -3.7589   10.1175   -3.5219 P.3     1  UNL1        0.2491
      6 O          -3.0900   10.4390   -2.2264 O.co2   1  UNL1       -0.6337
      7 O          -5.1388    9.5616   -3.4890 O.co2   1  UNL1       -0.6337
      8 O          -2.6276    9.1005   -4.3236 O.3     1  UNL1       -0.0930
      9 O          -3.7669   11.4892   -4.3987 O.3     1  UNL1       -0.2057
     10 C          -4.2293   12.7039   -3.8418 C.3     1  UNL1        0.1232
     11 C          -5.6279   12.4272   -3.3739 C.3     1  UNL1        0.1214
     12 O          -5.5389   12.2708   -1.9538 O.3     1  UNL1       -0.3453
     13 C          -6.6038   13.6075   -3.6327 C.3     1  UNL1        0.1593
     14 O          -7.9368   13.0832   -3.8976 O.3     1  UNL1       -0.2421
     15 P          -8.2334   12.0963   -5.2595 P.3     1  UNL1       -0.0004
     16 O          -9.4466   12.7485   -5.8121 O.co2   1  UNL1       -0.6646
     17 O          -6.9978   12.2760   -6.0637 O.co2   1  UNL1       -0.6646
     18 O          -8.3911   10.7038   -4.7402 O.co2   1  UNL1       -0.6646
     19 C          -6.5481   14.3297   -2.2919 C.3     1  UNL1        0.1329
     20 O          -7.7107   15.1678   -2.1085 O.3     1  UNL1       -0.3845
     21 C          -6.5857   13.0630   -1.4143 C.3     1  UNL1        0.1668
     22 N          -6.2217   13.2283    0.0110 N.ar    1  UNL1       -0.2855
     23 C          -7.1116   13.0094    1.0327 C.ar    1  UNL1        0.1004
     24 N          -6.6194   13.2135    2.2186 N.ar    1  UNL1       -0.2306
     25 C          -5.2630   13.6100    1.9897 C.ar    1  UNL1        0.1473
     26 C          -4.1777   13.9622    2.9007 C.ar    1  UNL1        0.1472
     27 N          -4.3544   14.0621    4.2326 N.pl3   1  UNL1       -0.3413
     28 N          -2.9739   14.2647    2.3471 N.ar    1  UNL1       -0.2188
     29 C          -2.8739   14.2400    1.0099 C.ar    1  UNL1        0.1205
     30 N          -3.7882   13.9461    0.0539 N.ar    1  UNL1       -0.2159
     31 C          -5.0028   13.6227    0.6237 C.ar    1  UNL1        0.1674
     32 H          -3.5997   13.0016   -3.0033 H       1  UNL1        0.0631
     33 H          -4.2359   13.4855   -4.6014 H       1  UNL1        0.0631
     34 H          -6.0076   11.5142   -3.8327 H       1  UNL1        0.0650
     35 H          -6.2552   14.2446   -4.4454 H       1  UNL1        0.0694
     36 H          -5.6195   14.8863   -2.1663 H       1  UNL1        0.0667
     37 H          -7.5447   12.5542   -1.5115 H       1  UNL1        0.0866
     38 H          -8.1314   12.6951    0.8661 H       1  UNL1        0.1030
     39 H          -1.8967   14.4988    0.6298 H       1  UNL1        0.1048
     40 H          -4.4562   13.2278    4.7926 H       1  UNL1        0.1438
     41 H          -4.3853   14.9714    4.6711 H       1  UNL1        0.1438
     42 H          -7.9076   15.2419   -1.1718 H       1  UNL1        0.2101
@<TRIPOS>BOND
     1     1     2    1
     2     1     3    1
     3     1     4    1
     4     1     8    1
     5     5     6    1
     6     5     7    1
     7     5     8    1
     8     5     9    1
     9     9    10    1
    10    10    11    1
    11    11    12    1
    12    11    13    1
    13    12    21    1
    14    13    14    1
    15    13    19    1
    16    14    15    1
    17    15    16    1
    18    15    17    1
    19    15    18    1
    20    19    20    1
    21    19    21    1
    22    21    22    1
    23    22    23   ar
    24    22    31   ar
    25    23    24   ar
    26    24    25   ar
    27    25    26   ar
    28    25    31   ar
    29    26    27    1
    30    26    28   ar
    31    28    29   ar
    32    29    30   ar
    33    30    31   ar
    34    32    10    1
    35    33    10    1
    36    11    34    1
    37    13    35    1
    38    19    36    1
    39    21    37    1
    40    38    23    1
    41    39    29    1
    42    40    27    1
    43    41    27    1
    44    42    20    1
@<TRIPOS>SUBSTRUCTURE
     1 UNL1        1 TEMP              0 ****  ****    0 ROOT

########## Name:	18	1977.12  0.915075
@<TRIPOS>MOLECULE
af2_protein.mol218	
 42 44 1 0 0
SMALL
GASTEIGER


@<TRIPOS>ATOM
      1 P          -0.3636    9.0342   -3.9419 P.3     1  UNL1        0.0544
      2 O           0.6595    9.3318   -4.9646 O.co2   1  UNL1       -0.6615
      3 O          -0.0202    9.5027   -2.5565 O.co2   1  UNL1       -0.6615
      4 O          -0.8616    7.6396   -3.9834 O.co2   1  UNL1       -0.6615
      5 P          -3.0823   10.5646   -3.5883 P.3     1  UNL1        0.2491
      6 O          -2.6023   11.0199   -2.2498 O.co2   1  UNL1       -0.6337
      7 O          -4.2335    9.6235   -3.6466 O.co2   1  UNL1       -0.6337
      8 O          -1.6623    9.9610   -4.3473 O.3     1  UNL1       -0.0930
      9 O          -3.4577   11.9050   -4.4327 O.3     1  UNL1       -0.2057
     10 C          -4.2874   12.9053   -3.8756 C.3     1  UNL1        0.1232
     11 C          -5.5603   12.2081   -3.4945 C.3     1  UNL1        0.1214
     12 O          -5.4963   12.0304   -2.0755 O.3     1  UNL1       -0.3453
     13 C          -6.8305   13.0547   -3.7814 C.3     1  UNL1        0.1593
     14 O          -7.9322   12.1691   -4.1336 O.3     1  UNL1       -0.2421
     15 P          -7.8556   11.1921   -5.5323 P.3     1  UNL1       -0.0004
     16 O          -9.1804   11.4756   -6.1380 O.co2   1  UNL1       -0.6646
     17 O          -6.6931   11.7612   -6.2606 O.co2   1  UNL1       -0.6646
     18 O          -7.6151    9.7964   -5.0546 O.co2   1  UNL1       -0.6646
     19 C          -7.0567   13.7085   -2.4236 C.3     1  UNL1        0.1329
     20 O          -8.4238   14.1560   -2.2876 O.3     1  UNL1       -0.3845
     21 C          -6.7562   12.4548   -1.5786 C.3     1  UNL1        0.1668
     22 N          -6.5264   12.6654   -0.1315 N.ar    1  UNL1       -0.2855
     23 C          -7.3579   12.1530    0.8327 C.ar    1  UNL1        0.1004
     24 N          -7.0060   12.4480    2.0491 N.ar    1  UNL1       -0.2306
     25 C          -5.8205   13.2376    1.9068 C.ar    1  UNL1        0.1473
     26 C          -4.9344   13.8606    2.8858 C.ar    1  UNL1        0.1472
     27 N          -5.1959   13.8520    4.2074 N.pl3   1  UNL1       -0.3413
     28 N          -3.8508   14.5279    2.4086 N.ar    1  UNL1       -0.2188
     29 C          -3.6844   14.5857    1.0791 C.ar    1  UNL1        0.1205
     30 N          -4.4229   14.0709    0.0661 N.ar    1  UNL1       -0.2159
     31 C          -5.5112   13.3798    0.5585 C.ar    1  UNL1        0.1674
     32 H          -3.8160   13.3438   -2.9960 H       1  UNL1        0.0631
     33 H          -4.4909   13.6785   -4.6164 H       1  UNL1        0.0631
     34 H          -5.6279   11.2420   -3.9947 H       1  UNL1        0.0650
     35 H          -6.6497   13.7974   -4.5583 H       1  UNL1        0.0694
     36 H          -6.3435   14.5103   -2.2327 H       1  UNL1        0.0667
     37 H          -7.5139   11.6884   -1.7417 H       1  UNL1        0.0866
     38 H          -8.2283   11.5569    0.6013 H       1  UNL1        0.1030
     39 H          -2.8121   15.1373    0.7612 H       1  UNL1        0.1048
     40 H          -5.0706   13.0040    4.7416 H       1  UNL1        0.1438
     41 H          -5.5175   14.6935    4.6640 H       1  UNL1        0.1438
     42 H          -8.6781   14.1321   -1.3622 H       1  UNL1        0.2101
@<TRIPOS>BOND
     1     1     2    1
     2     1     3    1
     3     1     4    1
     4     1     8    1
     5     5     6    1
     6     5     7    1
     7     5     8    1
     8     5     9    1
     9     9    10    1
    10    10    11    1
    11    11    12    1
    12    11    13    1
    13    12    21    1
    14    13    14    1
    15    13    19    1
    16    14    15    1
    17    15    16    1
    18    15    17    1
    19    15    18    1
    20    19    20    1
    21    19    21    1
    22    21    22    1
    23    22    23   ar
    24    22    31   ar
    25    23    24   ar
    26    24    25   ar
    27    25    26   ar
    28    25    31   ar
    29    26    27    1
    30    26    28   ar
    31    28    29   ar
    32    29    30   ar
    33    30    31   ar
    34    32    10    1
    35    33    10    1
    36    11    34    1
    37    13    35    1
    38    19    36    1
    39    21    37    1
    40    38    23    1
    41    39    29    1
    42    40    27    1
    43    41    27    1
    44    42    20    1
@<TRIPOS>SUBSTRUCTURE
     1 UNL1        1 TEMP              0 ****  ****    0 ROOT

########## Name:	19	1711.51  0.901371
@<TRIPOS>MOLECULE
af2_protein.mol219	
 42 44 1 0 0
SMALL
GASTEIGER


@<TRIPOS>ATOM
      1 P          -0.7139    9.8150   -4.9612 P.3     1  UNL1        0.0544
      2 O           0.0335   10.2789   -6.1474 O.co2   1  UNL1       -0.6615
      3 O          -0.1273   10.2393   -3.6449 O.co2   1  UNL1       -0.6615
      4 O          -1.0756    8.3791   -5.0069 O.co2   1  UNL1       -0.6615
      5 P          -3.4255   11.0189   -3.9331 P.3     1  UNL1        0.2491
      6 O          -2.7148   11.4475   -2.6920 O.co2   1  UNL1       -0.6337
      7 O          -4.4685    9.9630   -3.8246 O.co2   1  UNL1       -0.6337
      8 O          -2.1508   10.6166   -5.0148 O.3     1  UNL1       -0.0930
      9 O          -4.0977   12.3559   -4.5742 O.3     1  UNL1       -0.2057
     10 C          -4.8791   13.2273   -3.7809 C.3     1  UNL1        0.1232
     11 C          -5.9693   12.3757   -3.1995 C.3     1  UNL1        0.1214
     12 O          -5.5862   12.1264   -1.8430 O.3     1  UNL1       -0.3453
     13 C          -7.3454   13.0941   -3.1499 C.3     1  UNL1        0.1593
     14 O          -8.4085   12.1154   -3.3338 O.3     1  UNL1       -0.2421
     15 P          -8.5418   11.2326   -4.7897 P.3     1  UNL1       -0.0004
     16 O          -9.9864   11.4043   -5.0835 O.co2   1  UNL1       -0.6646
     17 O          -7.6214   11.9647   -5.6967 O.co2   1  UNL1       -0.6646
     18 O          -8.0741    9.8467   -4.4826 O.co2   1  UNL1       -0.6646
     19 C          -7.3359   13.6421   -1.7280 C.3     1  UNL1        0.1329
     20 O          -8.6780   13.9302   -1.2769 O.3     1  UNL1       -0.3845
     21 C          -6.7446   12.3830   -1.0640 C.3     1  UNL1        0.1668
     22 N          -6.2308   12.5356    0.3159 N.ar    1  UNL1       -0.2855
     23 C          -6.7843   11.8825    1.3887 C.ar    1  UNL1        0.1004
     24 N          -6.2093   12.1451    2.5247 N.ar    1  UNL1       -0.2306
     25 C          -5.1616   13.0655    2.2017 C.ar    1  UNL1        0.1473
     26 C          -4.1490   13.7250    3.0211 C.ar    1  UNL1        0.1472
     27 N          -4.1192   13.6137    4.3634 N.pl3   1  UNL1       -0.3413
     28 N          -3.2607   14.5318    2.3830 N.ar    1  UNL1       -0.2188
     29 C          -3.3893   14.6819    1.0565 C.ar    1  UNL1        0.1205
     30 N          -4.2758   14.1478    0.1818 N.ar    1  UNL1       -0.2159
     31 C          -5.1633   13.3161    0.8338 C.ar    1  UNL1        0.1674
     32 H          -4.2736   13.6642   -2.9868 H       1  UNL1        0.0631
     33 H          -5.3086   14.0142   -4.4008 H       1  UNL1        0.0631
     34 H          -6.0513   11.4376   -3.7486 H       1  UNL1        0.0650
     35 H          -7.4062   13.8946   -3.8871 H       1  UNL1        0.0694
     36 H          -6.6772   14.5046   -1.6273 H       1  UNL1        0.0667
     37 H          -7.4440   11.5492   -1.1256 H       1  UNL1        0.0866
     38 H          -7.6240   11.2094    1.2971 H       1  UNL1        0.1030
     39 H          -2.6613   15.3420    0.6086 H       1  UNL1        0.1048
     40 H          -3.8030   12.7557    4.7923 H       1  UNL1        0.1438
     41 H          -4.4133   14.3883    4.9409 H       1  UNL1        0.1438
     42 H          -8.7247   13.8268   -0.3236 H       1  UNL1        0.2101
@<TRIPOS>BOND
     1     1     2    1
     2     1     3    1
     3     1     4    1
     4     1     8    1
     5     5     6    1
     6     5     7    1
     7     5     8    1
     8     5     9    1
     9     9    10    1
    10    10    11    1
    11    11    12    1
    12    11    13    1
    13    12    21    1
    14    13    14    1
    15    13    19    1
    16    14    15    1
    17    15    16    1
    18    15    17    1
    19    15    18    1
    20    19    20    1
    21    19    21    1
    22    21    22    1
    23    22    23   ar
    24    22    31   ar
    25    23    24   ar
    26    24    25   ar
    27    25    26   ar
    28    25    31   ar
    29    26    27    1
    30    26    28   ar
    31    28    29   ar
    32    29    30   ar
    33    30    31   ar
    34    32    10    1
    35    33    10    1
    36    11    34    1
    37    13    35    1
    38    19    36    1
    39    21    37    1
    40    38    23    1
    41    39    29    1
    42    40    27    1
    43    41    27    1
    44    42    20    1
@<TRIPOS>SUBSTRUCTURE
     1 UNL1        1 TEMP              0 ****  ****    0 ROOT

