@<TRIPOS>MOLECULE
1afkA_BS01_PAP.pdb
 42 44 0 0 0
SMALL
GASTEIGER

@<TRIPOS>ATOM
      1 P          37.1170   -3.3541   25.0597  P.3     1  UNL1        0.0544
      2 O          36.1435   -2.7690   26.0036  O.co2   1  UNL1       -0.6615
      3 O          36.5301   -4.3254   24.0753  O.co2   1  UNL1       -0.6615
      4 O          38.3534   -3.8502   25.7078  O.co2   1  UNL1       -0.6615
      5 P          38.3636   -1.8794   22.5838  P.3     1  UNL1        0.2491
      6 O          37.6765   -2.8696   21.7026  O.co2   1  UNL1       -0.6337
      7 O          39.8502   -1.8979   22.6473  O.co2   1  UNL1       -0.6337
      8 O          37.6079   -2.1004   24.1125  O.3     1  UNL1       -0.0930
      9 O          37.8779   -0.4033   22.0984  O.3     1  UNL1       -0.2057
     10 C          37.9281   -0.0348   20.7342  C.3     1  UNL1        0.1232
     11 C          39.3557   -0.2302   20.3153  C.3     1  UNL1        0.1214
     12 O          39.3793   -1.4552   19.5751  O.3     1  UNL1       -0.3453
     13 C          39.8692    0.8798   19.3580  C.3     1  UNL1        0.1593
     14 O          41.2895    1.1020   19.5934  O.3     1  UNL1       -0.2421
     15 P          41.8463    1.6750   21.1028  P.3     1  UNL1       -0.0004
     16 O          42.7487    2.7689   20.6652  O.co2   1  UNL1       -0.6646
     17 O          40.5917    2.1172   21.7632  O.co2   1  UNL1       -0.6646
     18 O          42.4812    0.5066   21.7851  O.co2   1  UNL1       -0.6646
     19 C          39.6270    0.2286   18.0017  C.3     1  UNL1        0.1329
     20 O          40.4481    0.8396   16.9818  O.3     1  UNL1       -0.3845
     21 C          40.1205   -1.1772   18.3970  C.3     1  UNL1        0.1668
     22 N          39.7778   -2.2868   17.4791  N.ar    1  UNL1       -0.2855
     23 C          40.7285   -3.0038   16.7966  C.ar    1  UNL1        0.1004
     24 N          40.2428   -3.9336   16.0286  N.ar    1  UNL1       -0.2306
     25 C          38.8242   -3.8471   16.1999  C.ar    1  UNL1        0.1473
     26 C          37.7198   -4.6163   15.6338  C.ar    1  UNL1        0.1472
     27 N          37.9044   -5.5624   14.6926  N.pl3   1  UNL1       -0.3413
     28 N          36.4637   -4.2928   16.0396  N.ar    1  UNL1       -0.2188
     29 C          36.3259   -3.2814   16.9095  C.ar    1  UNL1        0.1205
     30 N          37.2480   -2.4837   17.5009  N.ar    1  UNL1       -0.2159
     31 C          38.5219   -2.8294   17.0981  C.ar    1  UNL1        0.1674
     32 H          37.2682   -0.6708   20.1441  H       1  UNL1        0.0631
     33 H          37.6432    1.0108   20.6180  H       1  UNL1        0.0631
     34 H          40.0010   -0.3039   21.1907  H       1  UNL1        0.0650
     35 H          39.2962    1.8004   19.4682  H       1  UNL1        0.0694
     36 H          38.5712    0.2297   17.7310  H       1  UNL1        0.0667
     37 H          41.1900   -1.1661   18.6071  H       1  UNL1        0.0866
     38 H          41.7874   -2.8124   16.8895  H       1  UNL1        0.1030
     39 H          35.3045   -3.0656   17.1861  H       1  UNL1        0.1048
     40 H          38.3013   -6.4560   14.9456  H       1  UNL1        0.1438
     41 H          37.6460   -5.3780   13.7338  H       1  UNL1        0.1438
     42 H          40.6450    0.1936   16.2995  H       1  UNL1        0.2101
@<TRIPOS>BOND
     1     1     2    1
     2     1     3    1
     3     1     4    1
     4     1     8    1
     5     5     6    1
     6     5     7    1
     7     5     8    1
     8     5     9    1
     9     9    10    1
    10    10    11    1
    11    11    12    1
    12    11    13    1
    13    12    21    1
    14    13    14    1
    15    13    19    1
    16    14    15    1
    17    15    16    1
    18    15    17    1
    19    15    18    1
    20    19    20    1
    21    19    21    1
    22    21    22    1
    23    22    23   ar
    24    22    31   ar
    25    23    24   ar
    26    24    25   ar
    27    25    26   ar
    28    25    31   ar
    29    26    27    1
    30    26    28   ar
    31    28    29   ar
    32    29    30   ar
    33    30    31   ar
    34    32    10    1
    35    33    10    1
    36    11    34    1
    37    13    35    1
    38    19    36    1
    39    21    37    1
    40    38    23    1
    41    39    29    1
    42    40    27    1
    43    41    27    1
    44    42    20    1
