@<TRIPOS>MOLECULE
./../dock_file/temp/63bac31c6407cb74ef839bed77cac4e1/af2_protein:super_lig_af2:1720338735125/fitdock_em_5.mol2
   34    36     0     0     0
SMALL
USER_CHARGES
@<TRIPOS>ATOM
      1  P          -1.3135   10.7036   -4.5115 P.3     1  UNL1        0.5373
      2  O          -0.9673   11.7387   -3.4739 O.2     1  UNL1       -0.2221
      3  O          -1.8870    9.3877   -4.0127 O.3     1  UNL1       -0.1143
      4  O          -0.1686   10.3658   -5.3868 O.3     1  UNL1       -0.1143
      5  P          -3.0807   12.8647   -5.5295 P.3     1  UNL1        0.2231
      6  O          -2.0360   13.8664   -5.0747 O.2     1  UNL1       -0.5169
      7  O          -3.8097   13.1032   -6.8038 O.3     1  UNL1       -0.4370
      8  O          -2.3423   11.3554   -5.6199 O.3     1  UNL1       -0.2261
      9  O          -4.1738   12.6818   -4.3311 O.3     1  UNL1       -0.3111
     10  C          -4.9825   13.7666   -3.9216 C.3     1  UNL1        0.1812
     11  C          -6.0622   13.2827   -2.9978 C.3     1  UNL1        0.1773
     12  O          -5.5331   12.6715   -1.8171 O.3     1  UNL1       -0.3308
     13  C          -6.9728   14.4369   -2.5885 C.3     1  UNL1        0.1869
     14  O          -8.2474   14.3051   -3.2794 O.3     1  UNL1       -0.2675
     15  P          -8.3931   14.7161   -4.9313 P.3     1  UNL1        0.5327
     16  O          -8.1757   13.3908   -5.5645 O.2     1  UNL1       -0.2224
     17  O          -9.7807   15.2361   -5.0147 O.3     1  UNL1       -0.1145
     18  O          -7.3630   15.7662   -5.1937 O.3     1  UNL1       -0.1145
     19  C          -7.0633   14.3638   -1.0700 C.3     1  UNL1        0.1904
     20  O          -8.3457   13.9127   -0.5790 O.3     1  UNL1       -0.3779
     21  C          -6.0137   13.3162   -0.6476 C.3     1  UNL1        0.2372
     22  N          -4.8712   13.8734    0.1114 N.ar    1  UNL1       -0.2694
     23  C          -4.7731   13.9159    1.4789 C.ar    1  UNL1        0.1816
     24  N          -3.6538   14.4255    1.9004 N.ar    1  UNL1       -0.2194
     25  C          -2.9229   14.7284    0.7071 C.ar    1  UNL1        0.1481
     26  C          -1.6079   15.2994    0.4334 C.ar    1  UNL1        0.1480
     27  N          -0.8367   15.6654    1.4761 N.pl3   1  UNL1       -0.3413
     28  N          -1.2411   15.4455   -0.8661 N.ar    1  UNL1       -0.2078
     29  C          -2.0325   15.0881   -1.8887 C.ar    1  UNL1        0.2015
     30  N          -3.2548   14.5298   -1.7184 N.ar    1  UNL1       -0.2048
     31  C          -3.7336   14.2958   -0.4452 C.ar    1  UNL1        0.1690
     32  H          -0.3328   14.9810    2.0244 H       1  UNL1        0.1438
     33  H          -0.6837   16.6581    1.6733 H       1  UNL1        0.1438
     34  H          -8.2465   13.4569    0.2352 H       1  UNL1        0.2106
@<TRIPOS>BOND
     1    1    2 2
     2    1    3 1
     3    1    4 1
     4    1    8 1
     5    5    6 2
     6    5    7 1
     7    5    8 1
     8    5    9 1
     9    9   10 1
    10   10   11 1
    11   11   12 1
    12   11   13 1
    13   12   21 1
    14   13   14 1
    15   13   19 1
    16   14   15 1
    17   15   16 2
    18   15   17 1
    19   15   18 1
    20   19   20 1
    21   19   21 1
    22   20   34 1
    23   21   22 1
    24   22   23 ar
    25   22   31 ar
    26   23   24 ar
    27   24   25 ar
    28   25   26 ar
    29   25   31 ar
    30   26   27 1
    31   26   28 ar
    32   27   32 1
    33   27   33 1
    34   28   29 ar
    35   29   30 ar
    36   30   31 ar
