@<TRIPOS>MOLECULE
1afkA_BS01_PAP.pdb
42 44 1 0 0
SMALL
AMBER ff14SB


@<TRIPOS>ATOM
      1 PB         37.0960   -2.6270   23.1460 P.3       1 PAP125      1.4699
      2 O1B        35.6450   -2.8540   22.9910 O.co2     1 PAP125     -0.9705
      3 O2B        37.4700   -1.7080   24.2740 O.co2     1 PAP125     -0.9705
      4 O3B        37.7900   -2.3100   21.8760 O.co2     1 PAP125     -0.9705
      5 PA         38.8980   -5.1970   23.0660 P.3       1 PAP125      1.5768
      6 O1A        39.1010   -6.1020   24.2360 O.co2     1 PAP125     -0.9235
      7 O2A        40.0900   -4.5480   22.4560 O.co2     1 PAP125     -0.9235
      8 O3A        37.7130   -4.0790   23.6160 O.3       1 PAP125     -0.8108
      9 O5'        38.1350   -6.0710   21.9240 O.3       1 PAP125     -0.5892
     10 C5'        37.6540   -5.4600   20.7430 C.3       1 PAP125      0.1804
     11 C4'        37.4550   -6.5780   19.7620 C.3       1 PAP125      0.0941
     12 O4'        36.8070   -5.9900   18.6290 O.3       1 PAP125     -0.4026
     13 C3'        38.7890   -7.1850   19.2480 C.3       1 PAP125      0.1841
     14 O3'        38.6030   -8.6050   18.9820 O.3       1 PAP125     -0.5722
     15 P          39.2670   -9.7840   20.0240 P.3       1 PAP125      1.3259
     16 O1         38.0320  -10.3450   20.6260 O.co2     1 PAP125     -0.9312
     17 O2         39.9760  -10.6860   19.0810 O.co2     1 PAP125     -0.9312
     18 O3         40.1960   -9.0560   20.9410 O.co2     1 PAP125     -0.9312
     19 C2'        38.9870   -6.4000   17.9570 C.3       1 PAP125      0.0971
     20 O2'        39.8810   -7.0970   17.0610 O.3       1 PAP125     -0.6688
     21 C1'        37.5180   -6.4600   17.4940 C.3       1 PAP125      0.2178
     22 N9         37.1230   -5.5360   16.4070 N.ar      1 PAP125     -0.2212
     23 C8         36.2620   -5.9000   15.4020 C.ar      1 PAP125      0.1802
     24 N7         36.0380   -4.9630   14.5290 N.ar      1 PAP125     -0.1860
     25 C5         36.8190   -3.8500   14.9770 C.ar      1 PAP125     -0.3216
     26 C6         36.9920   -2.4990   14.4510 C.ar      1 PAP125      0.6212
     27 N6         36.4470   -2.1010   13.2850 N.pl3     1 PAP125     -0.9095
     28 N1         37.7970   -1.6570   15.1510 N.ar      1 PAP125     -0.8130
     29 C2         38.3900   -2.1300   16.2570 C.ar      1 PAP125      0.3239
     30 N3         38.3300   -3.3480   16.8480 N.ar      1 PAP125     -0.1410
     31 C4         37.4970   -4.1920   16.1420 C.ar      1 PAP125      0.1798
     32 H5'        36.7098   -4.9507   20.9358 H         1 PAP125      0.0152
     33 H5''       38.3900   -4.7527   20.3607 H         1 PAP125      0.0152
     34 H4'        36.8271   -7.3560   20.1962 H         1 PAP125      0.0827
     35 H3'        39.6044   -7.0126   19.9505 H         1 PAP125      0.0797
     36 H2'        39.3140   -5.3777   18.1467 H         1 PAP125      0.0337
     37 H1'        37.2300   -7.4836   17.2545 H         1 PAP125      0.0747
     38 H8         35.8101   -6.8791   15.3417 H         1 PAP125      0.1928
     39 H2         39.0244   -1.4178   16.7637 H         1 PAP125      0.0011
     40 H61        35.8716   -2.7380   12.7528 H         1 PAP125      0.3743
     41 H62        36.6139   -1.1655   12.9430 H         1 PAP125      0.3743
     42 HO2'       39.9910   -6.5855   16.2561 H         1 PAP125      0.4920
@<TRIPOS>BOND
     1    1    2 1
     2    1    3 1
     3    1    4 1
     4    1    8 1
     5    5    6 1
     6    5    7 1
     7    5    8 1
     8    5    9 1
     9    9   10 1
    10   10   11 1
    11   11   12 1
    12   11   13 1
    13   12   21 1
    14   13   14 1
    15   13   19 1
    16   14   15 1
    17   15   16 1
    18   15   17 1
    19   15   18 1
    20   19   20 1
    21   19   21 1
    22   21   22 1
    23   22   23 ar
    24   22   31 ar
    25   23   24 ar
    26   24   25 ar
    27   25   26 ar
    28   25   31 ar
    29   26   27 1
    30   26   28 ar
    31   28   29 ar
    32   29   30 ar
    33   30   31 ar
    34   32   10 1
    35   33   10 1
    36   34   11 1
    37   35   13 1
    38   36   19 1
    39   37   21 1
    40   38   23 1
    41   39   29 1
    42   40   27 1
    43   41   27 1
    44   42   20 1
@<TRIPOS>SUBSTRUCTURE
     1 PAP125     11 RESIDUE           4 A     PAP     0 ROOT
