########## Name:
@<TRIPOS>MOLECULE
1afkA_BS01_PAP.pdb	
 42 44 1 0 0
SMALL
AMBER ff14SB


@<TRIPOS>ATOM
      1 PB         -1.3884    9.2914   -2.6194 P.3     1  PAP125      1.4699
      2 O1B        -2.0451    8.2419   -1.8143 O.co2   1  PAP125     -0.9705
      3 O2B        -0.0244    8.9267   -3.1325 O.co2   1  PAP125     -0.9705
      4 O3B        -1.4433   10.6381   -2.0042 O.co2   1  PAP125     -0.9705
      5 PA         -3.1673   10.6295   -4.8337 P.3     1  PAP125      1.5768
      6 O1A        -3.4208   10.0189   -6.1724 O.co2   1  PAP125     -0.9235
      7 O2A        -2.5271   11.9715   -4.7760 O.co2   1  PAP125     -0.9235
      8 O3A        -2.2918    9.4136   -3.9900 O.3     1  PAP125     -0.8108
      9 O5'        -4.6039   10.7007   -4.0713 O.3     1  PAP125     -0.5892
     10 C5'        -4.6868   11.0869   -2.7135 C.3     1  PAP125      0.1804
     11 C4'        -6.1161   11.4878   -2.4941 C.3     1  PAP125      0.0941
     12 O4'        -6.2448   11.7124   -1.0861 O.3     1  PAP125     -0.4026
     13 C3'        -6.4913   12.8220   -3.1950 C.3     1  PAP125      0.1841
     14 O3'        -7.8872   12.7747   -3.6085 O.3     1  PAP125     -0.5722
     15 P          -8.3060   12.5912   -5.2540 P.3     1  PAP125      1.3259
     16 O1         -8.8846   11.2247   -5.2392 O.co2   1  PAP125     -0.9312
     17 O2         -9.2841   13.6891   -5.4627 O.co2   1  PAP125     -0.9312
     18 O3         -7.0433   12.7827   -6.0306 O.co2   1  PAP125     -0.9312
     19 C2'        -6.2826   13.8158   -2.0589 C.3     1  PAP125      0.0971
     20 O2'        -7.0126   15.0388   -2.3022 O.3     1  PAP125     -0.6688
     21 C1'        -6.9249   12.9514   -0.9561 C.3     1  PAP125      0.2178
     22 N9         -6.6733   13.3612    0.4440 N.ar    1  PAP125     -0.2212
     23 C8         -7.6365   13.2947    1.4195 C.ar    1  PAP125      0.1802
     24 N7         -7.2393   13.7059    2.5871 N.ar    1  PAP125     -0.1860
     25 C5         -5.8739   14.0911    2.3954 C.ar    1  PAP125     -0.3216
     26 C6         -4.8660   14.6169    3.3115 C.ar    1  PAP125      0.6212
     27 N6         -5.1455   14.9336    4.5908 N.pl3   1  PAP125     -0.9095
     28 N1         -3.6268   14.8516    2.8052 N.ar    1  PAP125     -0.8130
     29 C2         -3.4240   14.6062    1.5025 C.ar    1  PAP125      0.3239
     30 N3         -4.2587   14.1347    0.5447 N.ar    1  PAP125     -0.1410
     31 C4         -5.5098   13.8817    1.0697 C.ar    1  PAP125      0.1798
     32 H5'        -4.4218   10.2525   -2.0641 H       1  PAP125      0.0152
     33 H5''       -4.0269   11.9334   -2.5240 H       1  PAP125      0.0152
     34 H4'        -6.7868   10.6902   -2.8135 H       1  PAP125      0.0827
     35 H3'        -5.8312   13.0316   -4.0367 H       1  PAP125      0.0797
     36 H2'        -5.2257   14.0020   -1.8682 H       1  PAP125      0.0337
     37 H1'        -7.9927   12.8265   -1.1360 H       1  PAP125      0.0747
     38 H8         -8.6368   12.9324    1.2334 H       1  PAP125      0.1928
     39 H2         -2.4235   14.8213    1.1573 H       1  PAP125      0.0011
     40 H61        -6.0749   14.7840    4.9568 H       1  PAP125      0.3743
     41 H62        -4.4256   15.3207    5.1840 H       1  PAP125      0.3743
     42 HO2'       -6.8669   15.6489   -1.5755 H       1  PAP125      0.4920
@<TRIPOS>BOND
     1     1     2    1
     2     1     3    1
     3     1     4    1
     4     1     8    1
     5     5     6    1
     6     5     7    1
     7     5     8    1
     8     5     9    1
     9     9    10    1
    10    10    11    1
    11    11    12    1
    12    11    13    1
    13    12    21    1
    14    13    14    1
    15    13    19    1
    16    14    15    1
    17    15    16    1
    18    15    17    1
    19    15    18    1
    20    19    20    1
    21    19    21    1
    22    21    22    1
    23    22    23   ar
    24    22    31   ar
    25    23    24   ar
    26    24    25   ar
    27    25    26   ar
    28    25    31   ar
    29    26    27    1
    30    26    28   ar
    31    28    29   ar
    32    29    30   ar
    33    30    31   ar
    34    32    10    1
    35    33    10    1
    36    34    11    1
    37    35    13    1
    38    36    19    1
    39    37    21    1
    40    38    23    1
    41    39    29    1
    42    40    27    1
    43    41    27    1
    44    42    20    1
@<TRIPOS>SUBSTRUCTURE
     1 PAP125        1 TEMP              0 ****  ****    0 ROOT

